# generated using pymatgen
data_Te2I
_symmetry_space_group_name_H-M   'P 1'
_cell_length_a   16.78734375
_cell_length_b   13.99534930
_cell_length_c   4.17071845
_cell_angle_alpha   90.00000000
_cell_angle_beta   90.00000000
_cell_angle_gamma   90.00000000
_symmetry_Int_Tables_number   1
_chemical_formula_structural   Te2I
_chemical_formula_sum   'Te16 I8'
_cell_volume   979.88836074
_cell_formula_units_Z   8
loop_
 _symmetry_equiv_pos_site_id
 _symmetry_equiv_pos_as_xyz
  1  'x, y, z'
loop_
 _atom_site_type_symbol
 _atom_site_label
 _atom_site_symmetry_multiplicity
 _atom_site_fract_x
 _atom_site_fract_y
 _atom_site_fract_z
 _atom_site_occupancy
  Te  Te0  1  0.07880425  0.23025661  0.25000000  1
  Te  Te1  1  0.57880425  0.26974339  0.25000000  1
  Te  Te2  1  0.42119575  0.73025661  0.75000000  1
  Te  Te3  1  0.92119575  0.76974339  0.75000000  1
  Te  Te4  1  0.09610029  0.08624415  0.75000000  1
  Te  Te5  1  0.59610029  0.41375585  0.75000000  1
  Te  Te6  1  0.40389971  0.58624415  0.25000000  1
  Te  Te7  1  0.90389971  0.91375585  0.25000000  1
  Te  Te8  1  0.27149763  0.06272231  0.75000000  1
  Te  Te9  1  0.77149763  0.43727769  0.75000000  1
  Te  Te10  1  0.22850237  0.56272231  0.25000000  1
  Te  Te11  1  0.72850237  0.93727769  0.25000000  1
  Te  Te12  1  0.30835260  0.19932423  0.25000000  1
  Te  Te13  1  0.80835260  0.30067577  0.25000000  1
  Te  Te14  1  0.19164740  0.69932423  0.75000000  1
  Te  Te15  1  0.69164740  0.80067577  0.75000000  1
  I  I16  1  0.05460806  0.39127296  0.75000000  1
  I  I17  1  0.55460806  0.10872704  0.75000000  1
  I  I18  1  0.44539194  0.89127296  0.25000000  1
  I  I19  1  0.94539194  0.60872704  0.25000000  1
  I  I20  1  0.34811195  0.36095385  0.75000000  1
  I  I21  1  0.84811195  0.13904615  0.75000000  1
  I  I22  1  0.15188805  0.86095385  0.25000000  1
  I  I23  1  0.65188805  0.63904615  0.25000000  1
