# generated using pymatgen
data_TeI
_symmetry_space_group_name_H-M   'P 1'
_cell_length_a   4.24486500
_cell_length_b   16.97519683
_cell_length_c   14.40665775
_cell_angle_alpha   46.32859365
_cell_angle_beta   90.00000000
_cell_angle_gamma   90.00000000
_symmetry_Int_Tables_number   1
_chemical_formula_structural   TeI
_chemical_formula_sum   'Te8 I8'
_cell_volume   750.87477902
_cell_formula_units_Z   8
loop_
 _symmetry_equiv_pos_site_id
 _symmetry_equiv_pos_as_xyz
  1  'x, y, z'
loop_
 _atom_site_type_symbol
 _atom_site_label
 _atom_site_symmetry_multiplicity
 _atom_site_fract_x
 _atom_site_fract_y
 _atom_site_fract_z
 _atom_site_occupancy
  Te  Te0  1  0.00000000  0.68403133  0.16979566  1
  Te  Te1  1  0.00000000  0.31596867  0.83020434  1
  Te  Te2  1  0.50000000  0.81596867  0.83020434  1
  Te  Te3  1  0.50000000  0.18403133  0.16979566  1
  Te  Te4  1  0.50000000  0.58938614  0.12813011  1
  Te  Te5  1  0.50000000  0.41061386  0.87186989  1
  Te  Te6  1  0.00000000  0.91061386  0.87186989  1
  Te  Te7  1  0.00000000  0.08938614  0.12813011  1
  I  I8  1  0.50000000  0.79230729  0.20718644  1
  I  I9  1  0.50000000  0.20769271  0.79281356  1
  I  I10  1  0.00000000  0.70769271  0.79281356  1
  I  I11  1  0.00000000  0.29230729  0.20718644  1
  I  I12  1  0.50000000  0.38181372  0.38419456  1
  I  I13  1  0.50000000  0.61818628  0.61580544  1
  I  I14  1  0.00000000  0.11818628  0.61580544  1
  I  I15  1  0.00000000  0.88181372  0.38419456  1
