# generated using pymatgen
data_CuCSN
_symmetry_space_group_name_H-M   'P 1'
_cell_length_a   6.71663421
_cell_length_b   7.26217533
_cell_length_c   10.99878346
_cell_angle_alpha   90.00000000
_cell_angle_beta   90.00000000
_cell_angle_gamma   90.00000000
_symmetry_Int_Tables_number   1
_chemical_formula_structural   CuCSN
_chemical_formula_sum   'Cu8 C8 S8 N8'
_cell_volume   536.49178799
_cell_formula_units_Z   8
loop_
 _symmetry_equiv_pos_site_id
 _symmetry_equiv_pos_as_xyz
  1  'x, y, z'
loop_
 _atom_site_type_symbol
 _atom_site_label
 _atom_site_symmetry_multiplicity
 _atom_site_fract_x
 _atom_site_fract_y
 _atom_site_fract_z
 _atom_site_occupancy
  Cu  Cu0  1  0.63852873  0.84595027  0.68423128  1
  Cu  Cu1  1  0.36147127  0.65404973  0.18423128  1
  Cu  Cu2  1  0.86147127  0.34595027  0.31576872  1
  Cu  Cu3  1  0.13852873  0.15404973  0.81576872  1
  Cu  Cu4  1  0.36147127  0.15404973  0.31576872  1
  Cu  Cu5  1  0.63852873  0.34595027  0.81576872  1
  Cu  Cu6  1  0.13852873  0.65404973  0.68423128  1
  Cu  Cu7  1  0.86147127  0.84595027  0.18423128  1
  S  S8  1  0.67418409  0.61822677  0.28274400  1
  S  S9  1  0.32581591  0.88177323  0.78274400  1
  S  S10  1  0.82581591  0.11822677  0.71725600  1
  S  S11  1  0.17418409  0.38177323  0.21725600  1
  S  S12  1  0.32581591  0.38177323  0.71725600  1
  S  S13  1  0.67418409  0.11822677  0.21725600  1
  S  S14  1  0.17418409  0.88177323  0.28274400  1
  S  S15  1  0.82581591  0.61822677  0.78274400  1
  N  N16  1  0.61632661  0.76616563  0.51868678  1
  N  N17  1  0.38367339  0.73383437  0.01868678  1
  N  N18  1  0.88367339  0.26616563  0.48131322  1
  N  N19  1  0.11632661  0.23383437  0.98131322  1
  N  N20  1  0.38367339  0.23383437  0.48131322  1
  N  N21  1  0.61632661  0.26616563  0.98131322  1
  N  N22  1  0.11632661  0.73383437  0.51868678  1
  N  N23  1  0.88367339  0.76616563  0.01868678  1
  C  C24  1  0.64006841  0.70373094  0.42110893  1
  C  C25  1  0.35993159  0.79626906  0.92110893  1
  C  C26  1  0.85993159  0.20373094  0.57889107  1
  C  C27  1  0.14006841  0.29626906  0.07889107  1
  C  C28  1  0.35993159  0.29626906  0.57889107  1
  C  C29  1  0.64006841  0.20373094  0.07889107  1
  C  C30  1  0.14006841  0.79626906  0.42110893  1
  C  C31  1  0.85993159  0.70373094  0.92110893  1
