# generated using pymatgen
data_CaAs3
_symmetry_space_group_name_H-M   'P 1'
_cell_length_a   6.04521244
_cell_length_b   5.88891407
_cell_length_c   6.19224424
_cell_angle_alpha   70.46297348
_cell_angle_beta   77.10282107
_cell_angle_gamma   74.05556229
_symmetry_Int_Tables_number   1
_chemical_formula_structural   CaAs3
_chemical_formula_sum   'Ca2 As6'
_cell_volume   197.64873263
_cell_formula_units_Z   2
loop_
 _symmetry_equiv_pos_site_id
 _symmetry_equiv_pos_as_xyz
  1  'x, y, z'
loop_
 _atom_site_type_symbol
 _atom_site_label
 _atom_site_symmetry_multiplicity
 _atom_site_fract_x
 _atom_site_fract_y
 _atom_site_fract_z
 _atom_site_occupancy
  Ca  Ca0  1  0.31330943  0.35019339  0.36551860  1
  Ca  Ca1  1  0.68669057  0.64980661  0.63448140  1
  As  As2  1  0.98921426  0.22009205  0.98252699  1
  As  As3  1  0.01078574  0.77990795  0.01747301  1
  As  As4  1  0.14032801  0.80812098  0.58981511  1
  As  As5  1  0.85967199  0.19187902  0.41018489  1
  As  As6  1  0.41518340  0.21405255  0.89523959  1
  As  As7  1  0.58481660  0.78594745  0.10476041  1
