# generated using pymatgen
data_V6O11
_symmetry_space_group_name_H-M   'P 1'
_cell_length_a   5.55165505
_cell_length_b   7.15218893
_cell_length_c   9.74991423
_cell_angle_alpha   89.17513131
_cell_angle_beta   80.30766977
_cell_angle_gamma   71.55923026
_symmetry_Int_Tables_number   1
_chemical_formula_structural   V6O11
_chemical_formula_sum   'V12 O22'
_cell_volume   361.70098875
_cell_formula_units_Z   2
loop_
 _symmetry_equiv_pos_site_id
 _symmetry_equiv_pos_as_xyz
  1  'x, y, z'
loop_
 _atom_site_type_symbol
 _atom_site_label
 _atom_site_symmetry_multiplicity
 _atom_site_fract_x
 _atom_site_fract_y
 _atom_site_fract_z
 _atom_site_occupancy
  V  V0  1  0.17898923  0.30060045  0.06475014  1
  V  V1  1  0.82101077  0.69939955  0.93524986  1
  V  V2  1  0.17297606  0.80317781  0.06957318  1
  V  V3  1  0.82702394  0.19682219  0.93042682  1
  V  V4  1  0.70473843  0.56966927  0.23851362  1
  V  V5  1  0.29526157  0.43033073  0.76148638  1
  V  V6  1  0.67464908  0.08354561  0.24812653  1
  V  V7  1  0.32535092  0.91645439  0.75187347  1
  V  V8  1  0.22777441  0.84275164  0.42243983  1
  V  V9  1  0.77222559  0.15724836  0.57756017  1
  V  V10  1  0.24281208  0.35261325  0.41094791  1
  V  V11  1  0.75718792  0.64738675  0.58905209  1
  O  O12  1  0.80001529  0.45040377  0.02850436  1
  O  O13  1  0.19998471  0.54959623  0.97149564  1
  O  O14  1  0.51451979  0.18251820  0.06535541  1
  O  O15  1  0.48548021  0.81748180  0.93464459  1
  O  O16  1  0.00213554  0.09651484  0.10941608  1
  O  O17  1  0.99786446  0.90348516  0.89058392  1
  O  O18  1  0.81952680  0.80186194  0.14535712  1
  O  O19  1  0.18047320  0.19813806  0.85464288  1
  O  O20  1  0.33342190  0.74052917  0.21110774  1
  O  O21  1  0.66657810  0.25947083  0.78889226  1
  O  O22  1  0.06859368  0.41467801  0.24567109  1
  O  O23  1  0.93140632  0.58532199  0.75432891  1
  O  O24  1  0.57509293  0.35692439  0.29348940  1
  O  O25  1  0.42490707  0.64307561  0.70651060  1
  O  O26  1  0.37515406  0.06039245  0.34261154  1
  O  O27  1  0.62484594  0.93960755  0.65738846  1
  O  O28  1  0.87435219  0.02171821  0.39713954  1
  O  O29  1  0.12564781  0.97828179  0.60286046  1
  O  O30  1  0.58511897  0.70114749  0.42604258  1
  O  O31  1  0.41488103  0.29885251  0.57395742  1
  O  O32  1  0.10029437  0.64366085  0.46955381  1
  O  O33  1  0.89970563  0.35633915  0.53044619  1
