# generated using pymatgen
data_V7O13
_symmetry_space_group_name_H-M   'P 1'
_cell_length_a   5.55005147
_cell_length_b   7.06421045
_cell_length_c   11.41815046
_cell_angle_alpha   82.62764868
_cell_angle_beta   90.37547421
_cell_angle_gamma   71.92586847
_symmetry_Int_Tables_number   1
_chemical_formula_structural   V7O13
_chemical_formula_sum   'V14 O26'
_cell_volume   421.54975199
_cell_formula_units_Z   2
loop_
 _symmetry_equiv_pos_site_id
 _symmetry_equiv_pos_as_xyz
  1  'x, y, z'
loop_
 _atom_site_type_symbol
 _atom_site_label
 _atom_site_symmetry_multiplicity
 _atom_site_fract_x
 _atom_site_fract_y
 _atom_site_fract_z
 _atom_site_occupancy
  V  V0  1  0.20318274  0.28939248  0.05315434  1
  V  V1  1  0.79681726  0.71060752  0.94684566  1
  V  V2  1  0.20528823  0.78590493  0.05541881  1
  V  V3  1  0.79471177  0.21409507  0.94458119  1
  V  V4  1  0.79284942  0.51180742  0.20871123  1
  V  V5  1  0.20715058  0.48819258  0.79128877  1
  V  V6  1  0.78360289  0.02125073  0.20471357  1
  V  V7  1  0.21639711  0.97874927  0.79528643  1
  V  V8  1  0.39197390  0.76826043  0.35324983  1
  V  V9  1  0.60802610  0.23173957  0.64675017  1
  V  V10  1  0.38915393  0.26654358  0.35343231  1
  V  V11  1  0.61084607  0.73345642  0.64656769  1
  V  V12  1  0.00000000  0.00000000  0.50000000  1
  V  V13  1  0.00000000  0.50000000  0.50000000  1
  O  O14  1  0.80539709  0.44429516  0.02798449  1
  O  O15  1  0.19460291  0.55570484  0.97201551  1
  O  O16  1  0.55231137  0.16486626  0.05723751  1
  O  O17  1  0.44768863  0.83513374  0.94276249  1
  O  O18  1  0.05685141  0.06808868  0.09049525  1
  O  O19  1  0.94314859  0.93191132  0.90950475  1
  O  O20  1  0.87784968  0.75536026  0.12507512  1
  O  O21  1  0.12215032  0.24463974  0.87492488  1
  O  O22  1  0.41932579  0.70232539  0.18082383  1
  O  O23  1  0.58067421  0.29767461  0.81917617  1
  O  O24  1  0.14606262  0.36174385  0.21190094  1
  O  O25  1  0.85393738  0.63825615  0.78809906  1
  O  O26  1  0.67101257  0.30275636  0.25360307  1
  O  O27  1  0.32898743  0.69724364  0.74639693  1
  O  O28  1  0.48961992  0.00149475  0.30327242  1
  O  O29  1  0.51038008  0.99850525  0.69672758  1
  O  O30  1  0.03370284  0.92772652  0.33795070  1
  O  O31  1  0.96629716  0.07227348  0.66204930  1
  O  O32  1  0.75676542  0.60243977  0.35811247  1
  O  O33  1  0.24323458  0.39756023  0.64188753  1
  O  O34  1  0.29812444  0.52734885  0.39281038  1
  O  O35  1  0.70187556  0.47265115  0.60718962  1
  O  O36  1  0.11686284  0.22589370  0.45044499  1
  O  O37  1  0.88313716  0.77410630  0.54955501  1
  O  O38  1  0.64145329  0.17262987  0.48833020  1
  O  O39  1  0.35854671  0.82737013  0.51166980  1
