# generated using pymatgen
data_K6HgS4
_symmetry_space_group_name_H-M   'P 1'
_cell_length_a   10.09701501
_cell_length_b   10.09701501
_cell_length_c   7.72999554
_cell_angle_alpha   90.00000000
_cell_angle_beta   90.00000000
_cell_angle_gamma   120.00000000
_symmetry_Int_Tables_number   1
_chemical_formula_structural   K6HgS4
_chemical_formula_sum   'K12 Hg2 S8'
_cell_volume   682.48934996
_cell_formula_units_Z   2
loop_
 _symmetry_equiv_pos_site_id
 _symmetry_equiv_pos_as_xyz
  1  'x, y, z'
loop_
 _atom_site_type_symbol
 _atom_site_label
 _atom_site_symmetry_multiplicity
 _atom_site_fract_x
 _atom_site_fract_y
 _atom_site_fract_z
 _atom_site_occupancy
  Hg  Hg0  1  0.66666667  0.33333333  0.00025601  1
  Hg  Hg1  1  0.33333333  0.66666667  0.50025601  1
  S  S2  1  0.66666667  0.33333333  0.34463119  1
  S  S3  1  0.33333333  0.66666667  0.84463119  1
  S  S4  1  0.18950507  0.81049493  0.39724921  1
  S  S5  1  0.18950507  0.37901015  0.39724921  1
  S  S6  1  0.62098985  0.81049493  0.39724921  1
  S  S7  1  0.81049493  0.18950507  0.89724921  1
  S  S8  1  0.81049493  0.62098985  0.89724921  1
  S  S9  1  0.37901015  0.18950507  0.89724921  1
  K  K10  1  0.85167410  0.14832590  0.29424522  1
  K  K11  1  0.85167410  0.70334819  0.29424522  1
  K  K12  1  0.29665181  0.14832590  0.29424522  1
  K  K13  1  0.14832590  0.85167410  0.79424522  1
  K  K14  1  0.14832590  0.29665181  0.79424522  1
  K  K15  1  0.70334819  0.85167410  0.79424522  1
  K  K16  1  0.47105144  0.52894856  0.12287650  1
  K  K17  1  0.47105144  0.94210287  0.12287650  1
  K  K18  1  0.05789713  0.52894856  0.12287650  1
  K  K19  1  0.52894856  0.47105144  0.62287650  1
  K  K20  1  0.52894856  0.05789713  0.62287650  1
  K  K21  1  0.94210287  0.47105144  0.62287650  1
