# generated using pymatgen
data_Cs3Re2Cl10O
_symmetry_space_group_name_H-M   'P 1'
_cell_length_a   10.32946661
_cell_length_b   10.32946661
_cell_length_c   10.32946661
_cell_angle_alpha   137.63272811
_cell_angle_beta   137.63272811
_cell_angle_gamma   61.46596057
_symmetry_Int_Tables_number   1
_chemical_formula_structural   Cs3Re2Cl10O
_chemical_formula_sum   'Cs3 Re2 Cl10 O1'
_cell_volume   494.81745265
_cell_formula_units_Z   1
loop_
 _symmetry_equiv_pos_site_id
 _symmetry_equiv_pos_as_xyz
  1  'x, y, z'
loop_
 _atom_site_type_symbol
 _atom_site_label
 _atom_site_symmetry_multiplicity
 _atom_site_fract_x
 _atom_site_fract_y
 _atom_site_fract_z
 _atom_site_occupancy
  Re  Re0  1  0.89617687  0.89617687  0.00000000  1
  Re  Re1  1  0.10382313  0.10382313  0.00000000  1
  Cs  Cs2  1  0.75000000  0.25000000  0.50000000  1
  Cs  Cs3  1  0.25000000  0.75000000  0.50000000  1
  Cs  Cs4  1  0.50000000  0.50000000  0.00000000  1
  O  O5  1  0.00000000  0.00000000  0.00000000  1
  Cl  Cl6  1  0.76085003  0.76085003  0.00000000  1
  Cl  Cl7  1  0.23914997  0.23914997  0.00000000  1
  Cl  Cl8  1  0.11354892  0.11354892  0.44793896  1
  Cl  Cl9  1  0.66560996  0.66560996  0.55206104  1
  Cl  Cl10  1  0.11354892  0.66560996  0.00000000  1
  Cl  Cl11  1  0.66560996  0.11354892  0.00000000  1
  Cl  Cl12  1  0.88645108  0.88645108  0.55206104  1
  Cl  Cl13  1  0.33439004  0.33439004  0.44793896  1
  Cl  Cl14  1  0.88645108  0.33439004  0.00000000  1
  Cl  Cl15  1  0.33439004  0.88645108  0.00000000  1
