# generated using pymatgen
data_LaP5
_symmetry_space_group_name_H-M   'P 1'
_cell_length_a   9.71588139
_cell_length_b   5.62414497
_cell_length_c   9.71397581
_cell_angle_alpha   73.83087184
_cell_angle_beta   90.00000000
_cell_angle_gamma   90.00000000
_symmetry_Int_Tables_number   1
_chemical_formula_structural   LaP5
_chemical_formula_sum   'La4 P20'
_cell_volume   509.80925835
_cell_formula_units_Z   4
loop_
 _symmetry_equiv_pos_site_id
 _symmetry_equiv_pos_as_xyz
  1  'x, y, z'
loop_
 _atom_site_type_symbol
 _atom_site_label
 _atom_site_symmetry_multiplicity
 _atom_site_fract_x
 _atom_site_fract_y
 _atom_site_fract_z
 _atom_site_occupancy
  La  La0  1  0.75000000  0.59098093  0.04717249  1
  La  La1  1  0.25000000  0.40901907  0.95282751  1
  La  La2  1  0.75000000  0.64294727  0.50898355  1
  La  La3  1  0.25000000  0.35705273  0.49101645  1
  P  P4  1  0.09710524  0.98458281  0.18684757  1
  P  P5  1  0.59710524  0.01541719  0.81315243  1
  P  P6  1  0.90289476  0.01541719  0.81315243  1
  P  P7  1  0.40289476  0.98458281  0.18684757  1
  P  P8  1  0.08299580  0.94558823  0.68844712  1
  P  P9  1  0.58299580  0.05441177  0.31155288  1
  P  P10  1  0.91700420  0.05441177  0.31155288  1
  P  P11  1  0.41700420  0.94558823  0.68844712  1
  P  P12  1  0.04605789  0.64504633  0.13068257  1
  P  P13  1  0.54605789  0.35495367  0.86931743  1
  P  P14  1  0.95394211  0.35495367  0.86931743  1
  P  P15  1  0.45394211  0.64504633  0.13068257  1
  P  P16  1  0.03960353  0.58005333  0.66155410  1
  P  P17  1  0.53960353  0.41994667  0.33844590  1
  P  P18  1  0.96039647  0.41994667  0.33844590  1
  P  P19  1  0.46039647  0.58005333  0.66155410  1
  P  P20  1  0.75000000  0.03934046  0.15733480  1
  P  P21  1  0.25000000  0.96065954  0.84266520  1
  P  P22  1  0.75000000  0.08672706  0.63614842  1
  P  P23  1  0.25000000  0.91327294  0.36385158  1
