# generated using pymatgen
data_MoC4IO4
_symmetry_space_group_name_H-M   'P 1'
_cell_length_a   9.04363218
_cell_length_b   9.57164979
_cell_length_c   10.69122282
_cell_angle_alpha   85.57434315
_cell_angle_beta   83.23993939
_cell_angle_gamma   62.30828036
_symmetry_Int_Tables_number   1
_chemical_formula_structural   MoC4IO4
_chemical_formula_sum   'Mo4 C16 I4 O16'
_cell_volume   813.49483782
_cell_formula_units_Z   4
loop_
 _symmetry_equiv_pos_site_id
 _symmetry_equiv_pos_as_xyz
  1  'x, y, z'
loop_
 _atom_site_type_symbol
 _atom_site_label
 _atom_site_symmetry_multiplicity
 _atom_site_fract_x
 _atom_site_fract_y
 _atom_site_fract_z
 _atom_site_occupancy
  Mo  Mo0  1  0.05793248  0.13097515  0.01563700  1
  Mo  Mo1  1  0.94206752  0.86902485  0.98436300  1
  Mo  Mo2  1  0.56619559  0.62477120  0.51594328  1
  Mo  Mo3  1  0.43380441  0.37522880  0.48405672  1
  I  I4  1  0.27197036  0.82492392  0.93251791  1
  I  I5  1  0.72802964  0.17507608  0.06748209  1
  I  I6  1  0.51383885  0.43602958  0.71192654  1
  I  I7  1  0.48616115  0.56397042  0.28807346  1
  C  C8  1  0.13017784  0.04103432  0.19139340  1
  C  C9  1  0.86982216  0.95896568  0.80860660  1
  C  C10  1  0.99759077  0.22464935  0.83856805  1
  C  C11  1  0.00240923  0.77535065  0.16143195  1
  C  C12  1  0.26124299  0.16317006  0.97139486  1
  C  C13  1  0.73875701  0.83682994  0.02860514  1
  C  C14  1  0.96608474  0.34203089  0.09277137  1
  C  C15  1  0.03391526  0.65796911  0.90722863  1
  C  C16  1  0.32466927  0.79689108  0.55707033  1
  C  C17  1  0.67533073  0.20310892  0.44292967  1
  C  C18  1  0.80877899  0.45778814  0.47140660  1
  C  C19  1  0.19122101  0.54221186  0.52859340  1
  C  C20  1  0.64578210  0.69531176  0.65440422  1
  C  C21  1  0.35421790  0.30468824  0.34559578  1
  C  C22  1  0.60596105  0.78936022  0.41152172  1
  C  C23  1  0.39403895  0.21063978  0.58847828  1
  O  O24  1  0.17925898  0.99479599  0.28916856  1
  O  O25  1  0.82074102  0.00520401  0.71083144  1
  O  O26  1  0.96898359  0.28377357  0.73956644  1
  O  O27  1  0.03101641  0.71622643  0.26043356  1
  O  O28  1  0.37334887  0.19093369  0.94331513  1
  O  O29  1  0.62665113  0.80906631  0.05668487  1
  O  O30  1  0.91994925  0.46234183  0.14028956  1
  O  O31  1  0.08005075  0.53765817  0.85971044  1
  O  O32  1  0.19125524  0.89872516  0.58024873  1
  O  O33  1  0.80874476  0.10127484  0.41975127  1
  O  O34  1  0.94758421  0.36903980  0.44421136  1
  O  O35  1  0.05241579  0.63096020  0.55578864  1
  O  O36  1  0.69283192  0.73775571  0.73303945  1
  O  O37  1  0.30716808  0.26224429  0.26696055  1
  O  O38  1  0.62557485  0.88904470  0.35495726  1
  O  O39  1  0.37442515  0.11095530  0.64504274  1
