# generated using pymatgen
data_GeS2
_symmetry_space_group_name_H-M   'P 1'
_cell_length_a   22.78265466
_cell_length_b   7.03011745
_cell_length_c   6.89072283
_cell_angle_alpha   59.66904520
_cell_angle_beta   90.00000000
_cell_angle_gamma   90.00000000
_symmetry_Int_Tables_number   1
_chemical_formula_structural   GeS2
_chemical_formula_sum   'Ge12 S24'
_cell_volume   952.58623535
_cell_formula_units_Z   12
loop_
 _symmetry_equiv_pos_site_id
 _symmetry_equiv_pos_as_xyz
  1  'x, y, z'
loop_
 _atom_site_type_symbol
 _atom_site_label
 _atom_site_symmetry_multiplicity
 _atom_site_fract_x
 _atom_site_fract_y
 _atom_site_fract_z
 _atom_site_occupancy
  Ge  Ge0  1  0.98757214  0.99874262  0.49568807  1
  Ge  Ge1  1  0.01242786  0.99874262  0.99568807  1
  Ge  Ge2  1  0.73759569  0.75323507  0.50030221  1
  Ge  Ge3  1  0.26240431  0.75323507  0.00030221  1
  Ge  Ge4  1  0.51283846  0.50883413  0.99373567  1
  Ge  Ge5  1  0.48716154  0.50883413  0.49373567  1
  Ge  Ge6  1  0.76281068  0.25300924  0.99908404  1
  Ge  Ge7  1  0.23718932  0.25300924  0.49908404  1
  Ge  Ge8  1  0.87471154  0.86000097  0.24737280  1
  Ge  Ge9  1  0.12528846  0.86000097  0.74737280  1
  Ge  Ge10  1  0.62490857  0.36778628  0.74586803  1
  Ge  Ge11  1  0.37509143  0.36778628  0.24586803  1
  S  S12  1  0.94864574  0.71282502  0.14699852  1
  S  S13  1  0.05135426  0.71282502  0.64699852  1
  S  S14  1  0.89628326  0.85933619  0.56760885  1
  S  S15  1  0.10371674  0.85933619  0.06760885  1
  S  S16  1  0.79970366  0.61836077  0.34313673  1
  S  S17  1  0.20029634  0.61836077  0.84313673  1
  S  S18  1  0.69957882  0.12522511  0.83843650  1
  S  S19  1  0.30042118  0.12522511  0.33843650  1
  S  S20  1  0.55061326  0.22200883  0.64575411  1
  S  S21  1  0.44938674  0.22200883  0.14575411  1
  S  S22  1  0.00246419  0.23263260  0.12701867  1
  S  S23  1  0.99753581  0.23263260  0.62701867  1
  S  S24  1  0.85370420  0.17884545  0.92956543  1
  S  S25  1  0.14629580  0.17884545  0.42956543  1
  S  S26  1  0.75574064  0.61820484  0.86838866  1
  S  S27  1  0.24425936  0.61820484  0.36838866  1
  S  S28  1  0.74562156  0.11846780  0.36753139  1
  S  S29  1  0.25437844  0.11846780  0.86753139  1
  S  S30  1  0.64581256  0.68832425  0.43043947  1
  S  S31  1  0.35418744  0.68832425  0.93043947  1
  S  S32  1  0.60408432  0.36888623  0.06573507  1
  S  S33  1  0.39591568  0.36888623  0.56573507  1
  S  S34  1  0.50234574  0.74257460  0.12503577  1
  S  S35  1  0.49765426  0.74257460  0.62503577  1
