# generated using pymatgen
data_CuSnH12(NO3)2
_symmetry_space_group_name_H-M   'P 1'
_cell_length_a   5.58108511
_cell_length_b   6.83512557
_cell_length_c   9.85387361
_cell_angle_alpha   93.10946051
_cell_angle_beta   93.35302637
_cell_angle_gamma   107.88875148
_symmetry_Int_Tables_number   1
_chemical_formula_structural   CuSnH12(NO3)2
_chemical_formula_sum   'Cu2 Sn2 H24 N4 O12'
_cell_volume   356.08140891
_cell_formula_units_Z   2
loop_
 _symmetry_equiv_pos_site_id
 _symmetry_equiv_pos_as_xyz
  1  'x, y, z'
loop_
 _atom_site_type_symbol
 _atom_site_label
 _atom_site_symmetry_multiplicity
 _atom_site_fract_x
 _atom_site_fract_y
 _atom_site_fract_z
 _atom_site_occupancy
  Sn  Sn0  1  0.00000000  0.00000000  0.00000000  1
  Sn  Sn1  1  0.00000000  0.00000000  0.50000000  1
  Cu  Cu2  1  0.00000000  0.50000000  0.00000000  1
  Cu  Cu3  1  0.00000000  0.50000000  0.50000000  1
  O  O4  1  0.90257841  0.72064049  0.10101956  1
  O  O5  1  0.90257841  0.72064049  0.60101956  1
  O  O6  1  0.09742159  0.27935951  0.39898044  1
  O  O7  1  0.09742159  0.27935951  0.89898044  1
  O  O8  1  0.82744177  0.13215441  0.14615797  1
  O  O9  1  0.82744177  0.13215441  0.64615797  1
  O  O10  1  0.17255823  0.86784559  0.35384203  1
  O  O11  1  0.17255823  0.86784559  0.85384203  1
  O  O12  1  0.66747444  0.87910524  0.37533021  1
  O  O13  1  0.66747444  0.87910524  0.87533021  1
  O  O14  1  0.33252556  0.12089476  0.12466979  1
  O  O15  1  0.33252556  0.12089476  0.62466979  1
  N  N16  1  0.69052726  0.45297841  0.37379918  1
  N  N17  1  0.69052726  0.45297841  0.87379918  1
  N  N18  1  0.30947274  0.54702159  0.12620082  1
  N  N19  1  0.30947274  0.54702159  0.62620082  1
  H  H20  1  0.99415338  0.75861856  0.19332655  1
  H  H21  1  0.99415338  0.75861856  0.69332655  1
  H  H22  1  0.00584662  0.24138144  0.30667345  1
  H  H23  1  0.00584662  0.24138144  0.80667345  1
  H  H24  1  0.35330037  0.88314433  0.38064351  1
  H  H25  1  0.35330037  0.88314433  0.88064351  1
  H  H26  1  0.64669963  0.11685567  0.11935649  1
  H  H27  1  0.64669963  0.11685567  0.61935649  1
  H  H28  1  0.70769731  0.94299773  0.28823936  1
  H  H29  1  0.70769731  0.94299773  0.78823936  1
  H  H30  1  0.29230269  0.05700227  0.21176064  1
  H  H31  1  0.29230269  0.05700227  0.71176064  1
  H  H32  1  0.47534475  0.63523388  0.09124207  1
  H  H33  1  0.47534475  0.63523388  0.59124207  1
  H  H34  1  0.52465525  0.36476612  0.40875793  1
  H  H35  1  0.52465525  0.36476612  0.90875793  1
  H  H36  1  0.29647359  0.61627085  0.21908091  1
  H  H37  1  0.29647359  0.61627085  0.71908091  1
  H  H38  1  0.70352641  0.38372915  0.28091909  1
  H  H39  1  0.70352641  0.38372915  0.78091909  1
  H  H40  1  0.32983030  0.40369168  0.14138350  1
  H  H41  1  0.32983030  0.40369168  0.64138350  1
  H  H42  1  0.67016970  0.59630832  0.35861650  1
  H  H43  1  0.67016970  0.59630832  0.85861650  1
