# generated using pymatgen
data_K4SnO4
_symmetry_space_group_name_H-M   'P 1'
_cell_length_a   6.64343288
_cell_length_b   6.64987619
_cell_length_c   9.96153237
_cell_angle_alpha   71.80064994
_cell_angle_beta   99.92690279
_cell_angle_gamma   112.79077696
_symmetry_Int_Tables_number   1
_chemical_formula_structural   K4SnO4
_chemical_formula_sum   'K8 Sn2 O8'
_cell_volume   384.76104945
_cell_formula_units_Z   2
loop_
 _symmetry_equiv_pos_site_id
 _symmetry_equiv_pos_as_xyz
  1  'x, y, z'
loop_
 _atom_site_type_symbol
 _atom_site_label
 _atom_site_symmetry_multiplicity
 _atom_site_fract_x
 _atom_site_fract_y
 _atom_site_fract_z
 _atom_site_occupancy
  Sn  Sn0  1  0.22260820  0.15414885  0.24631359  1
  Sn  Sn1  1  0.77739180  0.84585115  0.75368641  1
  K  K2  1  0.25505948  0.76269580  0.02354752  1
  K  K3  1  0.74494052  0.23730420  0.97645248  1
  K  K4  1  0.77187520  0.48716257  0.56104528  1
  K  K5  1  0.22812480  0.51283743  0.43895472  1
  K  K6  1  0.72653100  0.04266433  0.38706034  1
  K  K7  1  0.27346900  0.95733567  0.61293966  1
  K  K8  1  0.75479715  0.59011548  0.16955206  1
  K  K9  1  0.24520285  0.40988452  0.83044794  1
  O  O10  1  0.03504627  0.34546274  0.19292916  1
  O  O11  1  0.96495373  0.65453726  0.80707084  1
  O  O12  1  0.03764110  0.84215658  0.35298895  1
  O  O13  1  0.96235890  0.15784342  0.64701105  1
  O  O14  1  0.36640247  0.15896092  0.08503967  1
  O  O15  1  0.63359753  0.84103908  0.91496033  1
  O  O16  1  0.46569622  0.29453864  0.37744958  1
  O  O17  1  0.53430378  0.70546136  0.62255042  1
