# generated using pymatgen
data_K2SrCu(NO2)6
_symmetry_space_group_name_H-M   'P 1'
_cell_length_a   7.66685427
_cell_length_b   7.66992787
_cell_length_c   7.46385920
_cell_angle_alpha   60.85784185
_cell_angle_beta   60.89906532
_cell_angle_gamma   58.24309282
_symmetry_Int_Tables_number   1
_chemical_formula_structural   K2SrCu(NO2)6
_chemical_formula_sum   'K2 Sr1 Cu1 N6 O12'
_cell_volume   309.92344437
_cell_formula_units_Z   1
loop_
 _symmetry_equiv_pos_site_id
 _symmetry_equiv_pos_as_xyz
  1  'x, y, z'
loop_
 _atom_site_type_symbol
 _atom_site_label
 _atom_site_symmetry_multiplicity
 _atom_site_fract_x
 _atom_site_fract_y
 _atom_site_fract_z
 _atom_site_occupancy
  Cu  Cu0  1  0.00000000  0.00000000  0.00000000  1
  Sr  Sr1  1  0.50000000  0.50000000  0.50000000  1
  K  K2  1  0.75000000  0.75000000  0.75000000  1
  K  K3  1  0.25000000  0.25000000  0.25000000  1
  O  O4  1  0.82824204  0.62413609  0.37586391  1
  O  O5  1  0.17175796  0.37586391  0.62413609  1
  O  O6  1  0.37586391  0.17175796  0.82824204  1
  O  O7  1  0.62413609  0.82824204  0.17175796  1
  O  O8  1  0.15519879  0.84480121  0.35976655  1
  O  O9  1  0.64023345  0.35976655  0.84480121  1
  O  O10  1  0.35976655  0.64023345  0.15519879  1
  O  O11  1  0.84480121  0.15519879  0.64023345  1
  O  O12  1  0.64647907  0.15968715  0.35352093  1
  O  O13  1  0.84031285  0.35352093  0.15968715  1
  O  O14  1  0.35352093  0.84031285  0.64647907  1
  O  O15  1  0.15968715  0.64647907  0.84031285  1
  N  N16  1  0.78672722  0.78672722  0.21327278  1
  N  N17  1  0.21327278  0.21327278  0.78672722  1
  N  N18  1  0.19580112  0.80419888  0.19580112  1
  N  N19  1  0.80419888  0.19580112  0.80419888  1
  N  N20  1  0.80504938  0.19495062  0.19495062  1
  N  N21  1  0.19495062  0.80504938  0.80504938  1
