# generated using pymatgen
data_YInO3
_symmetry_space_group_name_H-M   'P 1'
_cell_length_a   6.34190308
_cell_length_b   6.34190308
_cell_length_c   12.45283334
_cell_angle_alpha   90.00000000
_cell_angle_beta   90.00000000
_cell_angle_gamma   120.00000000
_symmetry_Int_Tables_number   1
_chemical_formula_structural   YInO3
_chemical_formula_sum   'Y6 In6 O18'
_cell_volume   433.74852293
_cell_formula_units_Z   6
loop_
 _symmetry_equiv_pos_site_id
 _symmetry_equiv_pos_as_xyz
  1  'x, y, z'
loop_
 _atom_site_type_symbol
 _atom_site_label
 _atom_site_symmetry_multiplicity
 _atom_site_fract_x
 _atom_site_fract_y
 _atom_site_fract_z
 _atom_site_occupancy
  Y  Y0  1  -0.00000000  -0.00000000  0.77154271  1
  Y  Y1  1  -0.00000000  -0.00000000  0.27154271  1
  Y  Y2  1  0.33333333  0.66666667  0.73480226  1
  Y  Y3  1  0.66666667  0.33333333  0.73480226  1
  Y  Y4  1  0.66666667  0.33333333  0.23480226  1
  Y  Y5  1  0.33333333  0.66666667  0.23480226  1
  In  In6  1  0.33313108  0.33313108  0.50089198  1
  In  In7  1  0.66686892  -0.00000000  0.50089198  1
  In  In8  1  0.00000000  0.66686892  0.50089198  1
  In  In9  1  0.66686892  0.66686892  0.00089198  1
  In  In10  1  0.33313108  -0.00000000  0.00089198  1
  In  In11  1  -0.00000000  0.33313108  0.00089198  1
  O  O12  1  0.30510044  0.30510044  0.67380193  1
  O  O13  1  0.69489956  -0.00000000  0.67380193  1
  O  O14  1  -0.00000000  0.69489956  0.67380193  1
  O  O15  1  0.69489956  0.69489956  0.17380193  1
  O  O16  1  0.30510044  -0.00000000  0.17380193  1
  O  O17  1  0.00000000  0.30510044  0.17380193  1
  O  O18  1  0.63785365  0.63785365  0.82984796  1
  O  O19  1  0.36214635  -0.00000000  0.82984796  1
  O  O20  1  -0.00000000  0.36214635  0.82984796  1
  O  O21  1  0.36214635  0.36214635  0.32984796  1
  O  O22  1  0.63785365  -0.00000000  0.32984796  1
  O  O23  1  0.00000000  0.63785365  0.32984796  1
  O  O24  1  -0.00000000  -0.00000000  0.96555229  1
  O  O25  1  -0.00000000  -0.00000000  0.46555229  1
  O  O26  1  0.33333333  0.66666667  0.53343744  1
  O  O27  1  0.66666667  0.33333333  0.53343744  1
  O  O28  1  0.66666667  0.33333333  0.03343744  1
  O  O29  1  0.33333333  0.66666667  0.03343744  1
