# generated using pymatgen
data_Rb2CuPb(NO2)6
_symmetry_space_group_name_H-M   'P 1'
_cell_length_a   7.80255650
_cell_length_b   7.67893239
_cell_length_c   7.66908354
_cell_angle_alpha   61.11133683
_cell_angle_beta   59.50661074
_cell_angle_gamma   59.38205243
_symmetry_Int_Tables_number   1
_chemical_formula_structural   Rb2CuPb(NO2)6
_chemical_formula_sum   'Rb2 Cu1 Pb1 N6 O12'
_cell_volume   324.72617250
_cell_formula_units_Z   1
loop_
 _symmetry_equiv_pos_site_id
 _symmetry_equiv_pos_as_xyz
  1  'x, y, z'
loop_
 _atom_site_type_symbol
 _atom_site_label
 _atom_site_symmetry_multiplicity
 _atom_site_fract_x
 _atom_site_fract_y
 _atom_site_fract_z
 _atom_site_occupancy
  Cu  Cu0  1  0.00000000  0.00000000  0.00000000  1
  Pb  Pb1  1  0.50000000  0.50000000  0.50000000  1
  Rb  Rb2  1  0.25000000  0.25000000  0.25000000  1
  Rb  Rb3  1  0.75000000  0.75000000  0.75000000  1
  O  O4  1  0.84639096  0.15360904  0.34932946  1
  O  O5  1  0.15360904  0.84639096  0.65067054  1
  O  O6  1  0.34932946  0.65067054  0.84639096  1
  O  O7  1  0.65067054  0.34932946  0.15360904  1
  O  O8  1  0.36141134  0.83344875  0.16655125  1
  O  O9  1  0.83344875  0.36141134  0.63858866  1
  O  O10  1  0.16655125  0.63858866  0.36141134  1
  O  O11  1  0.63858866  0.16655125  0.83344875  1
  O  O12  1  0.16374063  0.36559022  0.83625937  1
  O  O13  1  0.36559022  0.16374063  0.63440978  1
  O  O14  1  0.83625937  0.63440978  0.16374063  1
  O  O15  1  0.63440978  0.83625937  0.36559022  1
  N  N16  1  0.80870511  0.19129489  0.19129489  1
  N  N17  1  0.19129489  0.80870511  0.80870511  1
  N  N18  1  0.20431620  0.79568380  0.20431620  1
  N  N19  1  0.79568380  0.20431620  0.79568380  1
  N  N20  1  0.20517545  0.20517545  0.79482455  1
  N  N21  1  0.79482455  0.79482455  0.20517545  1
