# generated using pymatgen
data_FeBi3(MoO6)2
_symmetry_space_group_name_H-M   'P 1'
_cell_length_a   10.36805294
_cell_length_b   10.36805294
_cell_length_c   5.34605154
_cell_angle_alpha   75.54404512
_cell_angle_beta   75.54404512
_cell_angle_gamma   69.49102492
_symmetry_Int_Tables_number   1
_chemical_formula_structural   FeBi3(MoO6)2
_chemical_formula_sum   'Fe2 Bi6 Mo4 O24'
_cell_volume   512.81558248
_cell_formula_units_Z   2
loop_
 _symmetry_equiv_pos_site_id
 _symmetry_equiv_pos_as_xyz
  1  'x, y, z'
loop_
 _atom_site_type_symbol
 _atom_site_label
 _atom_site_symmetry_multiplicity
 _atom_site_fract_x
 _atom_site_fract_y
 _atom_site_fract_z
 _atom_site_occupancy
  Bi  Bi0  1  0.96018583  0.73531914  0.16071000  1
  Bi  Bi1  1  0.26468086  0.03981417  0.83929000  1
  Bi  Bi2  1  0.03981417  0.26468086  0.33929000  1
  Bi  Bi3  1  0.73531914  0.96018583  0.66071000  1
  Bi  Bi4  1  0.34520722  0.65479278  0.00000000  1
  Bi  Bi5  1  0.65479278  0.34520722  0.50000000  1
  Fe  Fe6  1  0.88193740  0.11806260  0.00000000  1
  Fe  Fe7  1  0.11806260  0.88193740  0.50000000  1
  Mo  Mo8  1  0.46044536  0.20436587  0.17185645  1
  Mo  Mo9  1  0.79563413  0.53955464  0.82814355  1
  Mo  Mo10  1  0.53955464  0.79563413  0.32814355  1
  Mo  Mo11  1  0.20436587  0.46044536  0.67185645  1
  O  O12  1  0.87055752  0.95416779  0.25737841  1
  O  O13  1  0.04583221  0.12944248  0.74262159  1
  O  O14  1  0.12944248  0.04583221  0.24262159  1
  O  O15  1  0.95416779  0.87055752  0.75737841  1
  O  O16  1  0.74698287  0.15354987  0.78081171  1
  O  O17  1  0.84645013  0.25301713  0.21918829  1
  O  O18  1  0.25301713  0.84645013  0.71918829  1
  O  O19  1  0.15354987  0.74698287  0.28081171  1
  O  O20  1  0.49496496  0.07139254  0.98486466  1
  O  O21  1  0.92860746  0.50503504  0.01513534  1
  O  O22  1  0.50503504  0.92860746  0.51513534  1
  O  O23  1  0.07139254  0.49496496  0.48486466  1
  O  O24  1  0.59197848  0.17535825  0.37451254  1
  O  O25  1  0.82464175  0.40802152  0.62548746  1
  O  O26  1  0.40802152  0.82464175  0.12548746  1
  O  O27  1  0.17535825  0.59197848  0.87451254  1
  O  O28  1  0.45806802  0.36324616  0.94257597  1
  O  O29  1  0.63675384  0.54193198  0.05742403  1
  O  O30  1  0.54193198  0.63675384  0.55742403  1
  O  O31  1  0.36324616  0.45806802  0.44257597  1
  O  O32  1  0.29545122  0.21168636  0.39344676  1
  O  O33  1  0.78831364  0.70454878  0.60655324  1
  O  O34  1  0.70454878  0.78831364  0.10655324  1
  O  O35  1  0.21168636  0.29545122  0.89344676  1
