# generated using pymatgen
data_PbC2(SN)2
_symmetry_space_group_name_H-M   'P 1'
_cell_length_a   5.95118718
_cell_length_b   5.95118718
_cell_length_c   8.28563579
_cell_angle_alpha   89.86055976
_cell_angle_beta   89.86055976
_cell_angle_gamma   66.94374590
_symmetry_Int_Tables_number   1
_chemical_formula_structural   PbC2(SN)2
_chemical_formula_sum   'Pb2 C4 S4 N4'
_cell_volume   270.00763900
_cell_formula_units_Z   2
loop_
 _symmetry_equiv_pos_site_id
 _symmetry_equiv_pos_as_xyz
  1  'x, y, z'
loop_
 _atom_site_type_symbol
 _atom_site_label
 _atom_site_symmetry_multiplicity
 _atom_site_fract_x
 _atom_site_fract_y
 _atom_site_fract_z
 _atom_site_occupancy
  Pb  Pb0  1  0.90313419  0.09686581  0.25000000  1
  Pb  Pb1  1  0.09686581  0.90313419  0.75000000  1
  N  N2  1  0.15962482  0.72369670  0.44328225  1
  N  N3  1  0.27630330  0.84037518  0.05671775  1
  N  N4  1  0.84037518  0.27630330  0.55671775  1
  N  N5  1  0.72369670  0.15962482  0.94328225  1
  C  C6  1  0.24285303  0.51800353  0.39601295  1
  C  C7  1  0.48199647  0.75714697  0.10398705  1
  C  C8  1  0.75714697  0.48199647  0.60398705  1
  C  C9  1  0.51800353  0.24285303  0.89601295  1
  S  S10  1  0.35162965  0.23914752  0.32989452  1
  S  S11  1  0.76085248  0.64837035  0.17010548  1
  S  S12  1  0.64837035  0.76085248  0.67010548  1
  S  S13  1  0.23914752  0.35162965  0.82989452  1
