# generated using pymatgen
data_Y2HfS5
_symmetry_space_group_name_H-M   'P 1'
_cell_length_a   7.24705165
_cell_length_b   7.71902100
_cell_length_c   11.53860215
_cell_angle_alpha   90.00000000
_cell_angle_beta   90.00000000
_cell_angle_gamma   90.00000000
_symmetry_Int_Tables_number   1
_chemical_formula_structural   Y2HfS5
_chemical_formula_sum   'Y8 Hf4 S20'
_cell_volume   645.47106456
_cell_formula_units_Z   4
loop_
 _symmetry_equiv_pos_site_id
 _symmetry_equiv_pos_as_xyz
  1  'x, y, z'
loop_
 _atom_site_type_symbol
 _atom_site_label
 _atom_site_symmetry_multiplicity
 _atom_site_fract_x
 _atom_site_fract_y
 _atom_site_fract_z
 _atom_site_occupancy
  Y  Y0  1  0.47763226  0.99742432  0.67872134  1
  Y  Y1  1  0.02236774  0.50257568  0.17872134  1
  Y  Y2  1  0.52236774  0.49742432  0.32127866  1
  Y  Y3  1  0.97763226  0.00257568  0.82127866  1
  Y  Y4  1  0.52236774  0.00257568  0.32127866  1
  Y  Y5  1  0.97763226  0.49742432  0.82127866  1
  Y  Y6  1  0.47763226  0.50257568  0.67872134  1
  Y  Y7  1  0.02236774  0.99742432  0.17872134  1
  Hf  Hf8  1  0.92419455  0.25000000  0.50697196  1
  Hf  Hf9  1  0.57580545  0.25000000  0.00697196  1
  Hf  Hf10  1  0.07580545  0.75000000  0.49302804  1
  Hf  Hf11  1  0.42419455  0.75000000  0.99302804  1
  S  S12  1  0.33940458  0.03697778  0.90634751  1
  S  S13  1  0.16059542  0.46302222  0.40634751  1
  S  S14  1  0.66059542  0.53697778  0.09365249  1
  S  S15  1  0.83940458  0.96302222  0.59365249  1
  S  S16  1  0.66059542  0.96302222  0.09365249  1
  S  S17  1  0.83940458  0.53697778  0.59365249  1
  S  S18  1  0.33940458  0.46302222  0.90634751  1
  S  S19  1  0.16059542  0.03697778  0.40634751  1
  S  S20  1  0.16822029  0.25000000  0.68022951  1
  S  S21  1  0.33177971  0.25000000  0.18022951  1
  S  S22  1  0.83177971  0.75000000  0.31977049  1
  S  S23  1  0.66822029  0.75000000  0.81977049  1
  S  S24  1  0.94652851  0.25000000  0.00361482  1
  S  S25  1  0.55347149  0.25000000  0.50361482  1
  S  S26  1  0.05347149  0.75000000  0.99638518  1
  S  S27  1  0.44652851  0.75000000  0.49638518  1
  S  S28  1  0.68871489  0.25000000  0.79377357  1
  S  S29  1  0.81128511  0.25000000  0.29377357  1
  S  S30  1  0.31128511  0.75000000  0.20622643  1
  S  S31  1  0.18871489  0.75000000  0.70622643  1
