# generated using pymatgen
data_NaClO2
_symmetry_space_group_name_H-M   'P 1'
_cell_length_a   4.58662706
_cell_length_b   4.58662706
_cell_length_c   6.45284211
_cell_angle_alpha   70.91955431
_cell_angle_beta   70.91955431
_cell_angle_gamma   89.07617856
_symmetry_Int_Tables_number   1
_chemical_formula_structural   NaClO2
_chemical_formula_sum   'Na2 Cl2 O4'
_cell_volume   120.61581469
_cell_formula_units_Z   2
loop_
 _symmetry_equiv_pos_site_id
 _symmetry_equiv_pos_as_xyz
  1  'x, y, z'
loop_
 _atom_site_type_symbol
 _atom_site_label
 _atom_site_symmetry_multiplicity
 _atom_site_fract_x
 _atom_site_fract_y
 _atom_site_fract_z
 _atom_site_occupancy
  O  O0  1  0.84241476  0.43169684  0.84385500  1
  O  O1  1  0.56830316  0.15758524  0.65614500  1
  O  O2  1  0.15758524  0.56830316  0.15614500  1
  O  O3  1  0.43169684  0.84241476  0.34385500  1
  Na  Na4  1  0.63151950  0.36848050  0.25000000  1
  Na  Na5  1  0.36848050  0.63151950  0.75000000  1
  Cl  Cl6  1  0.84870174  0.15129826  0.75000000  1
  Cl  Cl7  1  0.15129826  0.84870174  0.25000000  1
