# generated using pymatgen
data_SnF2
_symmetry_space_group_name_H-M   'P 1'
_cell_length_a   4.31465634
_cell_length_b   12.41431720
_cell_length_c   13.52473712
_cell_angle_alpha   73.24527695
_cell_angle_beta   90.00000000
_cell_angle_gamma   90.00000000
_symmetry_Int_Tables_number   1
_chemical_formula_structural   SnF2
_chemical_formula_sum   'Sn16 F32'
_cell_volume   693.67852962
_cell_formula_units_Z   16
loop_
 _symmetry_equiv_pos_site_id
 _symmetry_equiv_pos_as_xyz
  1  'x, y, z'
loop_
 _atom_site_type_symbol
 _atom_site_label
 _atom_site_symmetry_multiplicity
 _atom_site_fract_x
 _atom_site_fract_y
 _atom_site_fract_z
 _atom_site_occupancy
  Sn  Sn0  1  0.55571948  0.62913597  0.05761823  1
  Sn  Sn1  1  0.44428052  0.62913597  0.55761823  1
  Sn  Sn2  1  0.44428052  0.37086403  0.94238177  1
  Sn  Sn3  1  0.55571948  0.37086403  0.44238177  1
  Sn  Sn4  1  0.94428052  0.12913597  0.55761823  1
  Sn  Sn5  1  0.94428052  0.87086403  0.94238177  1
  Sn  Sn6  1  0.05571948  0.87086403  0.44238177  1
  Sn  Sn7  1  0.05571948  0.12913597  0.05761823  1
  Sn  Sn8  1  0.42436881  0.88898031  0.18758522  1
  Sn  Sn9  1  0.57563119  0.88898031  0.68758522  1
  Sn  Sn10  1  0.57563119  0.11101969  0.81241478  1
  Sn  Sn11  1  0.42436881  0.11101969  0.31241478  1
  Sn  Sn12  1  0.07563119  0.38898031  0.68758522  1
  Sn  Sn13  1  0.07563119  0.61101969  0.81241478  1
  Sn  Sn14  1  0.92436881  0.61101969  0.31241478  1
  Sn  Sn15  1  0.92436881  0.38898031  0.18758522  1
  F  F16  1  0.25989999  0.73734026  0.31330915  1
  F  F17  1  0.74010001  0.73734026  0.81330915  1
  F  F18  1  0.74010001  0.26265974  0.68669085  1
  F  F19  1  0.25989999  0.26265974  0.18669085  1
  F  F20  1  0.24010001  0.23734026  0.81330915  1
  F  F21  1  0.24010001  0.76265974  0.68669085  1
  F  F22  1  0.75989999  0.76265974  0.18669085  1
  F  F23  1  0.75989999  0.23734026  0.31330915  1
  F  F24  1  0.23335749  0.60768131  0.18342964  1
  F  F25  1  0.76664251  0.60768131  0.68342964  1
  F  F26  1  0.76664251  0.39231869  0.81657036  1
  F  F27  1  0.23335749  0.39231869  0.31657036  1
  F  F28  1  0.26664251  0.10768131  0.68342964  1
  F  F29  1  0.26664251  0.89231869  0.81657036  1
  F  F30  1  0.73335749  0.89231869  0.31657036  1
  F  F31  1  0.73335749  0.10768131  0.18342964  1
  F  F32  1  0.32033340  0.82000769  0.04964549  1
  F  F33  1  0.67966660  0.82000769  0.54964549  1
  F  F34  1  0.67966660  0.17999231  0.95035451  1
  F  F35  1  0.32033340  0.17999231  0.45035451  1
  F  F36  1  0.17966660  0.32000769  0.54964549  1
  F  F37  1  0.17966660  0.67999231  0.95035451  1
  F  F38  1  0.82033340  0.67999231  0.45035451  1
  F  F39  1  0.82033340  0.32000769  0.04964549  1
  F  F40  1  0.30117075  0.53112751  0.42843591  1
  F  F41  1  0.69882925  0.53112751  0.92843591  1
  F  F42  1  0.69882925  0.46887249  0.57156409  1
  F  F43  1  0.30117075  0.46887249  0.07156409  1
  F  F44  1  0.19882925  0.03112751  0.92843591  1
  F  F45  1  0.19882925  0.96887249  0.57156409  1
  F  F46  1  0.80117075  0.96887249  0.07156409  1
  F  F47  1  0.80117075  0.03112751  0.42843591  1
