# generated using pymatgen
data_PI3
_symmetry_space_group_name_H-M   'P 1'
_cell_length_a   7.44646371
_cell_length_b   7.44684810
_cell_length_c   8.06032681
_cell_angle_alpha   90.00931570
_cell_angle_beta   89.98305448
_cell_angle_gamma   120.00846104
_symmetry_Int_Tables_number   1
_chemical_formula_structural   PI3
_chemical_formula_sum   'P2 I6'
_cell_volume   387.05154231
_cell_formula_units_Z   2
loop_
 _symmetry_equiv_pos_site_id
 _symmetry_equiv_pos_as_xyz
  1  'x, y, z'
loop_
 _atom_site_type_symbol
 _atom_site_label
 _atom_site_symmetry_multiplicity
 _atom_site_fract_x
 _atom_site_fract_y
 _atom_site_fract_z
 _atom_site_occupancy
  I  I0  1  0.04268126  0.35266854  0.00398434  1
  I  I1  1  0.69001238  0.04268101  0.50398371  1
  I  I2  1  0.35260406  0.30996903  0.50396114  1
  I  I3  1  0.95726367  0.64729957  0.50400378  1
  I  I4  1  0.30995770  0.95736258  0.00396324  1
  I  I5  1  0.64729147  0.69002402  0.00400395  1
  P  P6  1  0.33336556  0.66663570  0.13405033  1
  P  P7  1  0.66672389  0.33335956  0.63404950  1
