# generated using pymatgen
data_Ge(BrF5)2
_symmetry_space_group_name_H-M   'P 1'
_cell_length_a   14.11469972
_cell_length_b   5.11404901
_cell_length_c   6.63881927
_cell_angle_alpha   64.30699584
_cell_angle_beta   90.00000000
_cell_angle_gamma   90.00000000
_symmetry_Int_Tables_number   1
_chemical_formula_structural   Ge(BrF5)2
_chemical_formula_sum   'Ge2 Br4 F20'
_cell_volume   431.83198439
_cell_formula_units_Z   2
loop_
 _symmetry_equiv_pos_site_id
 _symmetry_equiv_pos_as_xyz
  1  'x, y, z'
loop_
 _atom_site_type_symbol
 _atom_site_label
 _atom_site_symmetry_multiplicity
 _atom_site_fract_x
 _atom_site_fract_y
 _atom_site_fract_z
 _atom_site_occupancy
  Ge  Ge0  1  0.00000000  0.00000000  0.00000000  1
  Ge  Ge1  1  0.50000000  0.00000000  0.50000000  1
  Br  Br2  1  0.13476493  0.68183678  0.67083268  1
  Br  Br3  1  0.36523507  0.68183678  0.17083268  1
  Br  Br4  1  0.86523507  0.31816322  0.32916732  1
  Br  Br5  1  0.63476493  0.31816322  0.82916732  1
  F  F6  1  0.03661348  0.97022807  0.73669352  1
  F  F7  1  0.46338652  0.97022807  0.23669352  1
  F  F8  1  0.96338652  0.02977193  0.26330648  1
  F  F9  1  0.53661348  0.02977193  0.76330648  1
  F  F10  1  0.09502388  0.28201844  0.95248519  1
  F  F11  1  0.40497612  0.28201844  0.45248519  1
  F  F12  1  0.90497612  0.71798156  0.04751481  1
  F  F13  1  0.59502388  0.71798156  0.54751481  1
  F  F14  1  0.08132915  0.72304326  0.16208499  1
  F  F15  1  0.41867085  0.72304326  0.66208499  1
  F  F16  1  0.91867085  0.27695674  0.83791501  1
  F  F17  1  0.58132915  0.27695674  0.33791501  1
  F  F18  1  0.21414713  0.46288349  0.60018981  1
  F  F19  1  0.28585287  0.46288349  0.10018981  1
  F  F20  1  0.78585287  0.53711651  0.39981019  1
  F  F21  1  0.71414713  0.53711651  0.89981019  1
  F  F22  1  0.17605936  0.00489506  0.44383897  1
  F  F23  1  0.32394064  0.00489506  0.94383897  1
  F  F24  1  0.82394064  0.99510494  0.55616103  1
  F  F25  1  0.67605936  0.99510494  0.05616103  1
