# generated using pymatgen
data_AgNO3
_symmetry_space_group_name_H-M   'P 1'
_cell_length_a   6.50260124
_cell_length_b   6.50260124
_cell_length_c   6.50260124
_cell_angle_alpha   47.67764063
_cell_angle_beta   47.67764063
_cell_angle_gamma   47.67764063
_symmetry_Int_Tables_number   1
_chemical_formula_structural   AgNO3
_chemical_formula_sum   'Ag2 N2 O6'
_cell_volume   137.60327747
_cell_formula_units_Z   2
loop_
 _symmetry_equiv_pos_site_id
 _symmetry_equiv_pos_as_xyz
  1  'x, y, z'
loop_
 _atom_site_type_symbol
 _atom_site_label
 _atom_site_symmetry_multiplicity
 _atom_site_fract_x
 _atom_site_fract_y
 _atom_site_fract_z
 _atom_site_occupancy
  Ag  Ag0  1  0.48650895  0.48650895  0.48650895  1
  Ag  Ag1  1  0.98650895  0.98650895  0.98650895  1
  O  O2  1  0.69782351  0.97960558  0.49767878  1
  O  O3  1  0.97960558  0.49767878  0.69782351  1
  O  O4  1  0.49767878  0.69782351  0.97960558  1
  O  O5  1  0.19782351  0.99767878  0.47960558  1
  O  O6  1  0.99767878  0.47960558  0.19782351  1
  O  O7  1  0.47960558  0.19782351  0.99767878  1
  N  N8  1  0.72528318  0.72528318  0.72528318  1
  N  N9  1  0.22528318  0.22528318  0.22528318  1
