# generated using pymatgen
data_Sr2Si
_symmetry_space_group_name_H-M   'P 1'
_cell_length_a   5.15273154
_cell_length_b   8.06159849
_cell_length_c   9.56460319
_cell_angle_alpha   90.00000000
_cell_angle_beta   90.00000000
_cell_angle_gamma   90.00000000
_symmetry_Int_Tables_number   1
_chemical_formula_structural   Sr2Si
_chemical_formula_sum   'Sr8 Si4'
_cell_volume   397.30647020
_cell_formula_units_Z   4
loop_
 _symmetry_equiv_pos_site_id
 _symmetry_equiv_pos_as_xyz
  1  'x, y, z'
loop_
 _atom_site_type_symbol
 _atom_site_label
 _atom_site_symmetry_multiplicity
 _atom_site_fract_x
 _atom_site_fract_y
 _atom_site_fract_z
 _atom_site_occupancy
  Sr  Sr0  1  0.75000000  0.84687571  0.42282734  1
  Sr  Sr1  1  0.75000000  0.34687571  0.07717266  1
  Sr  Sr2  1  0.25000000  0.15312429  0.57717266  1
  Sr  Sr3  1  0.25000000  0.65312429  0.92282734  1
  Sr  Sr4  1  0.75000000  0.98157953  0.82504526  1
  Sr  Sr5  1  0.75000000  0.48157953  0.67495474  1
  Sr  Sr6  1  0.25000000  0.01842047  0.17495474  1
  Sr  Sr7  1  0.25000000  0.51842047  0.32504526  1
  Si  Si8  1  0.75000000  0.24810346  0.39763308  1
  Si  Si9  1  0.75000000  0.74810346  0.10236692  1
  Si  Si10  1  0.25000000  0.75189654  0.60236692  1
  Si  Si11  1  0.25000000  0.25189654  0.89763308  1
