# generated using pymatgen
data_KCuPH2O5
_symmetry_space_group_name_H-M   'P 1'
_cell_length_a   6.85237564
_cell_length_b   6.85244274
_cell_length_c   10.52669778
_cell_angle_alpha   93.60231324
_cell_angle_beta   90.00000000
_cell_angle_gamma   90.00000000
_symmetry_Int_Tables_number   1
_chemical_formula_structural   KCuPH2O5
_chemical_formula_sum   'K4 Cu4 P4 H8 O20'
_cell_volume   493.30986638
_cell_formula_units_Z   4
loop_
 _symmetry_equiv_pos_site_id
 _symmetry_equiv_pos_as_xyz
  1  'x, y, z'
loop_
 _atom_site_type_symbol
 _atom_site_label
 _atom_site_symmetry_multiplicity
 _atom_site_fract_x
 _atom_site_fract_y
 _atom_site_fract_z
 _atom_site_occupancy
  Cu  Cu0  1  0.29365040  0.27692476  0.00786510  1
  Cu  Cu1  1  0.70634960  0.72307524  0.99213490  1
  Cu  Cu2  1  0.79365040  0.22307524  0.99213490  1
  Cu  Cu3  1  0.20634960  0.77692476  0.00786510  1
  K  K4  1  0.92334893  0.95150792  0.68135292  1
  K  K5  1  0.42334893  0.54849208  0.31864708  1
  K  K6  1  0.07665107  0.04849208  0.31864708  1
  K  K7  1  0.57665107  0.45150792  0.68135292  1
  P  P8  1  0.03314925  0.49563409  0.82454434  1
  P  P9  1  0.53314925  0.00436591  0.17545566  1
  P  P10  1  0.96685075  0.50436591  0.17545566  1
  P  P11  1  0.46685075  0.99563409  0.82454434  1
  O  O12  1  0.03656267  0.55437858  0.68735214  1
  O  O13  1  0.53656267  0.94562142  0.31264786  1
  O  O14  1  0.96343733  0.44562142  0.31264786  1
  O  O15  1  0.46343733  0.05437858  0.68735214  1
  O  O16  1  0.88106163  0.32875219  0.83574373  1
  O  O17  1  0.38106163  0.17124781  0.16425627  1
  O  O18  1  0.11893837  0.67124781  0.16425627  1
  O  O19  1  0.61893837  0.82875219  0.83574373  1
  O  O20  1  0.96749020  0.67769579  0.91807973  1
  O  O21  1  0.46749020  0.82230421  0.08192027  1
  O  O22  1  0.03250980  0.32230421  0.08192027  1
  O  O23  1  0.53250980  0.17769579  0.91807973  1
  O  O24  1  0.24172894  0.44147568  0.86959313  1
  O  O25  1  0.74172894  0.05852432  0.13040687  1
  O  O26  1  0.75827106  0.55852432  0.13040687  1
  O  O27  1  0.25827106  0.94147568  0.86959313  1
  O  O28  1  0.16411302  0.20931803  0.55392999  1
  O  O29  1  0.66411302  0.29068197  0.44607001  1
  O  O30  1  0.83588698  0.79068197  0.44607001  1
  O  O31  1  0.33588698  0.70931803  0.55392999  1
  H  H32  1  0.11780389  0.33540094  0.59414782  1
  H  H33  1  0.61780389  0.16459906  0.40585218  1
  H  H34  1  0.88219611  0.66459906  0.40585218  1
  H  H35  1  0.38219611  0.83540094  0.59414782  1
  H  H36  1  0.27505793  0.16567456  0.60567013  1
  H  H37  1  0.77505793  0.33432544  0.39432987  1
  H  H38  1  0.72494207  0.83432544  0.39432987  1
  H  H39  1  0.22494207  0.66567456  0.60567013  1
