# generated using pymatgen
data_Cr2Te4O11
_symmetry_space_group_name_H-M   'P 1'
_cell_length_a   7.80407127
_cell_length_b   6.92787244
_cell_length_c   9.72063947
_cell_angle_alpha   80.80161742
_cell_angle_beta   90.00000000
_cell_angle_gamma   90.00000000
_symmetry_Int_Tables_number   1
_chemical_formula_structural   Cr2Te4O11
_chemical_formula_sum   'Cr4 Te8 O22'
_cell_volume   518.79411122
_cell_formula_units_Z   2
loop_
 _symmetry_equiv_pos_site_id
 _symmetry_equiv_pos_as_xyz
  1  'x, y, z'
loop_
 _atom_site_type_symbol
 _atom_site_label
 _atom_site_symmetry_multiplicity
 _atom_site_fract_x
 _atom_site_fract_y
 _atom_site_fract_z
 _atom_site_occupancy
  Te  Te0  1  0.85401201  0.84807338  0.18105595  1
  Te  Te1  1  0.64598799  0.84807338  0.68105595  1
  Te  Te2  1  0.14598799  0.15192662  0.81894405  1
  Te  Te3  1  0.35401201  0.15192662  0.31894405  1
  Te  Te4  1  0.85877214  0.32339614  0.41122075  1
  Te  Te5  1  0.64122786  0.32339614  0.91122075  1
  Te  Te6  1  0.14122786  0.67660386  0.58877925  1
  Te  Te7  1  0.35877214  0.67660386  0.08877925  1
  Cr  Cr8  1  0.50026985  0.68291267  0.38426966  1
  Cr  Cr9  1  0.99973015  0.68291267  0.88426966  1
  Cr  Cr10  1  0.49973015  0.31708733  0.61573034  1
  Cr  Cr11  1  0.00026985  0.31708733  0.11573034  1
  O  O12  1  0.64555926  0.85118196  0.48560543  1
  O  O13  1  0.85444074  0.85118196  0.98560543  1
  O  O14  1  0.35444074  0.14881804  0.51439457  1
  O  O15  1  0.14555926  0.14881804  0.01439457  1
  O  O16  1  0.63829888  0.43381020  0.44707776  1
  O  O17  1  0.86170112  0.43381020  0.94707776  1
  O  O18  1  0.36170112  0.56618980  0.55292224  1
  O  O19  1  0.13829888  0.56618980  0.05292224  1
  O  O20  1  0.36226064  0.52264953  0.26846964  1
  O  O21  1  0.13773936  0.52264953  0.76846964  1
  O  O22  1  0.63773936  0.47735047  0.73153036  1
  O  O23  1  0.86226064  0.47735047  0.23153036  1
  O  O24  1  0.31400503  0.87322059  0.32319579  1
  O  O25  1  0.18599497  0.87322059  0.82319579  1
  O  O26  1  0.68599497  0.12677941  0.67680421  1
  O  O27  1  0.81400503  0.12677941  0.17680421  1
  O  O28  1  0.61418757  0.79578074  0.20441961  1
  O  O29  1  0.88581243  0.79578074  0.70441961  1
  O  O30  1  0.38581243  0.20421926  0.79558039  1
  O  O31  1  0.11418757  0.20421926  0.29558039  1
  O  O32  1  0.00000000  0.50000000  0.50000000  1
  O  O33  1  0.50000000  0.50000000  0.00000000  1
