# generated using pymatgen
data_Ca2Sb
_symmetry_space_group_name_H-M   'P 1'
_cell_length_a   9.01899808
_cell_length_b   9.01899808
_cell_length_c   9.01899808
_cell_angle_alpha   149.25279963
_cell_angle_beta   149.25279963
_cell_angle_gamma   44.03933030
_symmetry_Int_Tables_number   1
_chemical_formula_structural   Ca2Sb
_chemical_formula_sum   'Ca4 Sb2'
_cell_volume   191.20481488
_cell_formula_units_Z   2
loop_
 _symmetry_equiv_pos_site_id
 _symmetry_equiv_pos_as_xyz
  1  'x, y, z'
loop_
 _atom_site_type_symbol
 _atom_site_label
 _atom_site_symmetry_multiplicity
 _atom_site_fract_x
 _atom_site_fract_y
 _atom_site_fract_z
 _atom_site_occupancy
  Sb  Sb0  1  0.13073698  0.13073698  0.00000000  1
  Sb  Sb1  1  0.85890605  0.85890605  0.00000000  1
  Ca  Ca2  1  0.31973236  0.31973236  0.00000000  1
  Ca  Ca3  1  0.66998904  0.66998904  0.00000000  1
  Ca  Ca4  1  0.49476778  0.99476778  0.50000000  1
  Ca  Ca5  1  0.99476778  0.49476778  0.50000000  1
