# generated using pymatgen
data_RbBiC4(SN)4
_symmetry_space_group_name_H-M   'P 1'
_cell_length_a   6.70759686
_cell_length_b   7.98232686
_cell_length_c   11.23148405
_cell_angle_alpha   90.00000000
_cell_angle_beta   90.00000000
_cell_angle_gamma   90.00000000
_symmetry_Int_Tables_number   1
_chemical_formula_structural   RbBiC4(SN)4
_chemical_formula_sum   'Rb2 Bi2 C8 S8 N8'
_cell_volume   601.35870851
_cell_formula_units_Z   2
loop_
 _symmetry_equiv_pos_site_id
 _symmetry_equiv_pos_as_xyz
  1  'x, y, z'
loop_
 _atom_site_type_symbol
 _atom_site_label
 _atom_site_symmetry_multiplicity
 _atom_site_fract_x
 _atom_site_fract_y
 _atom_site_fract_z
 _atom_site_occupancy
  Bi  Bi0  1  0.96640880  0.50000000  0.50000000  1
  Bi  Bi1  1  0.03359120  0.00000000  0.00000000  1
  Rb  Rb2  1  0.66108468  0.00000000  0.50000000  1
  Rb  Rb3  1  0.33891532  0.50000000  0.00000000  1
  S  S4  1  0.62091318  0.06725558  0.17957854  1
  S  S5  1  0.62091318  0.93274442  0.82042146  1
  S  S6  1  0.37908682  0.43274442  0.67957854  1
  S  S7  1  0.37908682  0.56725558  0.32042146  1
  S  S8  1  0.85997846  0.66710534  0.09504462  1
  S  S9  1  0.85997846  0.33289466  0.90495538  1
  S  S10  1  0.14002154  0.83289466  0.59504462  1
  S  S11  1  0.14002154  0.16710534  0.40495538  1
  N  N12  1  0.30291908  0.87052490  0.09780491  1
  N  N13  1  0.30291908  0.12947510  0.90219509  1
  N  N14  1  0.69708092  0.62947510  0.59780491  1
  N  N15  1  0.69708092  0.37052490  0.40219509  1
  N  N16  1  0.91178012  0.70683139  0.34195581  1
  N  N17  1  0.91178012  0.29316861  0.65804419  1
  N  N18  1  0.08821988  0.79316861  0.84195581  1
  N  N19  1  0.08821988  0.20683139  0.15804419  1
  C  C20  1  0.44010109  0.95368657  0.13354555  1
  C  C21  1  0.44010109  0.04631343  0.86645445  1
  C  C22  1  0.55989891  0.54631343  0.63354555  1
  C  C23  1  0.55989891  0.45368657  0.36645445  1
  C  C24  1  0.89085261  0.69025156  0.23710960  1
  C  C25  1  0.89085261  0.30974844  0.76289040  1
  C  C26  1  0.10914739  0.80974844  0.73710960  1
  C  C27  1  0.10914739  0.19025156  0.26289040  1
