# generated using pymatgen
data_K2SrNi(NO2)6
_symmetry_space_group_name_H-M   'P 1'
_cell_length_a   7.51083218
_cell_length_b   7.51083218
_cell_length_c   7.51083218
_cell_angle_alpha   60.00000000
_cell_angle_beta   60.00000000
_cell_angle_gamma   60.00000000
_symmetry_Int_Tables_number   1
_chemical_formula_structural   K2SrNi(NO2)6
_chemical_formula_sum   'K2 Sr1 Ni1 N6 O12'
_cell_volume   299.60508292
_cell_formula_units_Z   1
loop_
 _symmetry_equiv_pos_site_id
 _symmetry_equiv_pos_as_xyz
  1  'x, y, z'
loop_
 _atom_site_type_symbol
 _atom_site_label
 _atom_site_symmetry_multiplicity
 _atom_site_fract_x
 _atom_site_fract_y
 _atom_site_fract_z
 _atom_site_occupancy
  Ni  Ni0  1  0.00000000  0.00000000  0.00000000  1
  Sr  Sr1  1  0.50000000  0.50000000  0.50000000  1
  K  K2  1  0.75000000  0.75000000  0.75000000  1
  K  K3  1  0.25000000  0.25000000  0.25000000  1
  O  O4  1  0.63829263  0.15883807  0.36170737  1
  O  O5  1  0.15883807  0.84116193  0.36170737  1
  O  O6  1  0.84116193  0.63829263  0.36170737  1
  O  O7  1  0.36170737  0.84116193  0.63829263  1
  O  O8  1  0.84116193  0.15883807  0.63829263  1
  O  O9  1  0.15883807  0.36170737  0.63829263  1
  O  O10  1  0.84116193  0.36170737  0.15883807  1
  O  O11  1  0.63829263  0.36170737  0.84116193  1
  O  O12  1  0.15883807  0.63829263  0.84116193  1
  O  O13  1  0.36170737  0.63829263  0.15883807  1
  O  O14  1  0.36170737  0.15883807  0.84116193  1
  O  O15  1  0.63829263  0.84116193  0.15883807  1
  N  N16  1  0.80200054  0.19799946  0.19799946  1
  N  N17  1  0.19799946  0.80200054  0.19799946  1
  N  N18  1  0.80200054  0.80200054  0.19799946  1
  N  N19  1  0.19799946  0.80200054  0.80200054  1
  N  N20  1  0.80200054  0.19799946  0.80200054  1
  N  N21  1  0.19799946  0.19799946  0.80200054  1
