# generated using pymatgen
data_Na4P2H4CO9
_symmetry_space_group_name_H-M   'P 1'
_cell_length_a   8.43468185
_cell_length_b   8.43468185
_cell_length_c   6.47129353
_cell_angle_alpha   90.00000000
_cell_angle_beta   90.00000000
_cell_angle_gamma   90.00000000
_symmetry_Int_Tables_number   1
_chemical_formula_structural   Na4P2H4CO9
_chemical_formula_sum   'Na8 P4 H8 C2 O18'
_cell_volume   460.39278695
_cell_formula_units_Z   2
loop_
 _symmetry_equiv_pos_site_id
 _symmetry_equiv_pos_as_xyz
  1  'x, y, z'
loop_
 _atom_site_type_symbol
 _atom_site_label
 _atom_site_symmetry_multiplicity
 _atom_site_fract_x
 _atom_site_fract_y
 _atom_site_fract_z
 _atom_site_occupancy
  P  P0  1  0.09303361  0.33099934  0.79320805  1
  P  P1  1  0.90696639  0.66900066  0.79320805  1
  P  P2  1  0.66900066  0.09303361  0.20679195  1
  P  P3  1  0.33099934  0.90696639  0.20679195  1
  C  C4  1  0.00000000  0.50000000  0.64711177  1
  C  C5  1  0.50000000  0.00000000  0.35288823  1
  O  O6  1  0.00000000  0.50000000  0.45465795  1
  O  O7  1  0.50000000  0.00000000  0.54534205  1
  O  O8  1  0.26757233  0.39118144  0.79987685  1
  O  O9  1  0.73242767  0.60881856  0.79987685  1
  O  O10  1  0.60881856  0.26757233  0.20012315  1
  O  O11  1  0.39118144  0.73242767  0.20012315  1
  O  O12  1  0.07357191  0.18055080  0.66591962  1
  O  O13  1  0.92642809  0.81944920  0.66591962  1
  O  O14  1  0.81944920  0.07357191  0.33408038  1
  O  O15  1  0.18055080  0.92642809  0.33408038  1
  O  O16  1  0.01739158  0.32649264  0.00766631  1
  O  O17  1  0.98260842  0.67350736  0.00766631  1
  O  O18  1  0.67350736  0.01739158  0.99233369  1
  O  O19  1  0.32649264  0.98260842  0.99233369  1
  O  O20  1  0.65945444  0.31935618  0.65559634  1
  O  O21  1  0.34054556  0.68064382  0.65559634  1
  O  O22  1  0.68064382  0.65945444  0.34440366  1
  O  O23  1  0.31935618  0.34054556  0.34440366  1
  H  H24  1  0.68458701  0.42918616  0.70392105  1
  H  H25  1  0.31541299  0.57081384  0.70392105  1
  H  H26  1  0.57081384  0.68458701  0.29607895  1
  H  H27  1  0.42918616  0.31541299  0.29607895  1
  H  H28  1  0.64864746  0.32435651  0.50485419  1
  H  H29  1  0.35135254  0.67564349  0.50485419  1
  H  H30  1  0.67564349  0.64864746  0.49514581  1
  H  H31  1  0.32435651  0.35135254  0.49514581  1
  Na  Na32  1  0.81797458  0.07364001  0.69577238  1
  Na  Na33  1  0.18202542  0.92635999  0.69577238  1
  Na  Na34  1  0.92635999  0.81797458  0.30422762  1
  Na  Na35  1  0.07364001  0.18202542  0.30422762  1
  Na  Na36  1  0.80159218  0.46671418  0.13969973  1
  Na  Na37  1  0.19840782  0.53328582  0.13969973  1
  Na  Na38  1  0.53328582  0.80159218  0.86030027  1
  Na  Na39  1  0.46671418  0.19840782  0.86030027  1
