# generated using pymatgen
data_V3O5
_symmetry_space_group_name_H-M   'P 1'
_cell_length_a   5.15179798
_cell_length_b   10.07935051
_cell_length_c   9.88827522
_cell_angle_alpha   41.20018012
_cell_angle_beta   90.00000000
_cell_angle_gamma   90.00000000
_symmetry_Int_Tables_number   1
_chemical_formula_structural   V3O5
_chemical_formula_sum   'V12 O20'
_cell_volume   338.21603353
_cell_formula_units_Z   4
loop_
 _symmetry_equiv_pos_site_id
 _symmetry_equiv_pos_as_xyz
  1  'x, y, z'
loop_
 _atom_site_type_symbol
 _atom_site_label
 _atom_site_symmetry_multiplicity
 _atom_site_fract_x
 _atom_site_fract_y
 _atom_site_fract_z
 _atom_site_occupancy
  V  V0  1  0.75806877  0.34396787  0.77592523  1
  V  V1  1  0.74193123  0.84396787  0.27592523  1
  V  V2  1  0.24193123  0.65603213  0.22407477  1
  V  V3  1  0.25806877  0.15603213  0.72407477  1
  V  V4  1  0.76021069  0.16364980  0.21616062  1
  V  V5  1  0.73978931  0.66364980  0.71616062  1
  V  V6  1  0.23978931  0.83635020  0.78383938  1
  V  V7  1  0.26021069  0.33635020  0.28383938  1
  V  V8  1  0.74586232  0.75359010  0.99714460  1
  V  V9  1  0.75413768  0.25359010  0.49714460  1
  V  V10  1  0.25413768  0.24640990  0.00285540  1
  V  V11  1  0.24586232  0.74640990  0.50285540  1
  O  O12  1  0.08910742  0.71851640  0.33411303  1
  O  O13  1  0.41089258  0.21851640  0.83411303  1
  O  O14  1  0.91089258  0.28148360  0.66588697  1
  O  O15  1  0.58910742  0.78148360  0.16588697  1
  O  O16  1  0.60932408  0.22174194  0.34241931  1
  O  O17  1  0.89067592  0.72174194  0.84241931  1
  O  O18  1  0.39067592  0.77825806  0.65758069  1
  O  O19  1  0.10932408  0.27825806  0.15758069  1
  O  O20  1  0.40130326  0.61656735  0.06081052  1
  O  O21  1  0.09869674  0.11656735  0.56081052  1
  O  O22  1  0.59869674  0.38343265  0.93918948  1
  O  O23  1  0.90130326  0.88343265  0.43918948  1
  O  O24  1  0.90594503  0.10862286  0.05404576  1
  O  O25  1  0.59405497  0.60862286  0.55404576  1
  O  O26  1  0.09405497  0.89137714  0.94595424  1
  O  O27  1  0.40594503  0.39137714  0.44595424  1
  O  O28  1  0.94756658  0.51098518  0.24999325  1
  O  O29  1  0.55243342  0.01098518  0.74999325  1
  O  O30  1  0.05243342  0.48901482  0.75000675  1
  O  O31  1  0.44756658  0.98901482  0.25000675  1
