# generated using pymatgen
data_Cs3MnCl5
_symmetry_space_group_name_H-M   'P 1'
_cell_length_a   10.05454429
_cell_length_b   10.05454429
_cell_length_c   10.05454429
_cell_angle_alpha   124.29482829
_cell_angle_beta   124.29482829
_cell_angle_gamma   82.70933735
_symmetry_Int_Tables_number   1
_chemical_formula_structural   Cs3MnCl5
_chemical_formula_sum   'Cs6 Mn2 Cl10'
_cell_volume   666.15908075
_cell_formula_units_Z   2
loop_
 _symmetry_equiv_pos_site_id
 _symmetry_equiv_pos_as_xyz
  1  'x, y, z'
loop_
 _atom_site_type_symbol
 _atom_site_label
 _atom_site_symmetry_multiplicity
 _atom_site_fract_x
 _atom_site_fract_y
 _atom_site_fract_z
 _atom_site_occupancy
  Cs  Cs0  1  0.25000000  0.25000000  0.00000000  1
  Cs  Cs1  1  0.75000000  0.75000000  0.00000000  1
  Cs  Cs2  1  0.66421392  0.16421392  0.82842785  1
  Cs  Cs3  1  0.33578608  0.83578608  0.17157215  1
  Cs  Cs4  1  0.16421392  0.33578608  0.50000000  1
  Cs  Cs5  1  0.83578608  0.66421392  0.50000000  1
  Mn  Mn6  1  0.25000000  0.75000000  0.50000000  1
  Mn  Mn7  1  0.75000000  0.25000000  0.50000000  1
  Cl  Cl8  1  0.50000000  0.50000000  0.00000000  1
  Cl  Cl9  1  0.00000000  0.00000000  0.00000000  1
  Cl  Cl10  1  0.98811007  0.48811007  0.78644359  1
  Cl  Cl11  1  0.70166648  0.20166648  0.21355641  1
  Cl  Cl12  1  0.48811007  0.70166648  0.50000000  1
  Cl  Cl13  1  0.20166648  0.98811007  0.50000000  1
  Cl  Cl14  1  0.01188993  0.51188993  0.21355641  1
  Cl  Cl15  1  0.29833352  0.79833352  0.78644359  1
  Cl  Cl16  1  0.51188993  0.29833352  0.50000000  1
  Cl  Cl17  1  0.79833352  0.01188993  0.50000000  1
