# generated using pymatgen
data_MgVO3
_symmetry_space_group_name_H-M   'P 1'
_cell_length_a   5.74812939
_cell_length_b   5.74812939
_cell_length_c   5.29655952
_cell_angle_alpha   90.00000000
_cell_angle_beta   90.00000000
_cell_angle_gamma   124.82269018
_symmetry_Int_Tables_number   1
_chemical_formula_structural   MgVO3
_chemical_formula_sum   'Mg2 V2 O6'
_cell_volume   143.66448524
_cell_formula_units_Z   2
loop_
 _symmetry_equiv_pos_site_id
 _symmetry_equiv_pos_as_xyz
  1  'x, y, z'
loop_
 _atom_site_type_symbol
 _atom_site_label
 _atom_site_symmetry_multiplicity
 _atom_site_fract_x
 _atom_site_fract_y
 _atom_site_fract_z
 _atom_site_occupancy
  Mg  Mg0  1  0.57377920  0.42622080  0.01248551  1
  Mg  Mg1  1  0.42622080  0.57377920  0.51248551  1
  V  V2  1  0.93009836  0.06990164  0.01283467  1
  V  V3  1  0.06990164  0.93009836  0.51283467  1
  O  O4  1  0.24014782  0.23987511  0.26267440  1
  O  O5  1  0.23987511  0.24014782  0.76267440  1
  O  O6  1  0.75985218  0.76012489  0.76267440  1
  O  O7  1  0.76012489  0.75985218  0.26267440  1
  O  O8  1  0.76475276  0.23524724  0.01333103  1
  O  O9  1  0.23524724  0.76475276  0.51333103  1
