# generated using pymatgen
data_Cu2PO4F
_symmetry_space_group_name_H-M   'P 1'
_cell_length_a   7.16087612
_cell_length_b   9.49455393
_cell_length_c   11.35821381
_cell_angle_alpha   100.39836064
_cell_angle_beta   98.58060533
_cell_angle_gamma   106.74371369
_symmetry_Int_Tables_number   1
_chemical_formula_structural   Cu2PO4F
_chemical_formula_sum   'Cu16 P8 O32 F8'
_cell_volume   710.56296297
_cell_formula_units_Z   8
loop_
 _symmetry_equiv_pos_site_id
 _symmetry_equiv_pos_as_xyz
  1  'x, y, z'
loop_
 _atom_site_type_symbol
 _atom_site_label
 _atom_site_symmetry_multiplicity
 _atom_site_fract_x
 _atom_site_fract_y
 _atom_site_fract_z
 _atom_site_occupancy
  Cu  Cu0  1  0.46052653  0.49703304  0.83991021  1
  Cu  Cu1  1  0.78085963  0.00281094  0.90172719  1
  Cu  Cu2  1  0.53947347  0.50296696  0.16008979  1
  Cu  Cu3  1  0.21914037  0.99718906  0.09827281  1
  Cu  Cu4  1  0.96052653  0.49703304  0.33991025  1
  Cu  Cu5  1  0.28085965  0.00281097  0.40172712  1
  Cu  Cu6  1  0.03947347  0.50296696  0.66008975  1
  Cu  Cu7  1  0.71914035  0.99718903  0.59827288  1
  Cu  Cu8  1  0.17957396  0.84963757  0.63484784  1
  Cu  Cu9  1  0.43766247  0.65030208  0.48228153  1
  Cu  Cu10  1  0.82042604  0.15036243  0.36515216  1
  Cu  Cu11  1  0.56233753  0.34969792  0.51771847  1
  Cu  Cu12  1  0.67957403  0.84963754  0.13484780  1
  Cu  Cu13  1  0.93766241  0.65030208  0.98228153  1
  Cu  Cu14  1  0.32042597  0.15036246  0.86515220  1
  Cu  Cu15  1  0.06233759  0.34969792  0.01771847  1
  P  P16  1  0.76049815  0.69836774  0.71833238  1
  P  P17  1  0.26049801  0.69836770  0.21833237  1
  P  P18  1  0.34798892  0.80140484  0.88995816  1
  P  P19  1  0.84798894  0.80140486  0.38995818  1
  P  P20  1  0.73950199  0.30163230  0.78166763  1
  P  P21  1  0.23950185  0.30163226  0.28166762  1
  P  P22  1  0.15201106  0.19859514  0.61004182  1
  P  P23  1  0.65201108  0.19859516  0.11004184  1
  O  O24  1  0.33532888  0.90288544  0.79923081  1
  O  O25  1  0.83532886  0.90288551  0.29923088  1
  O  O26  1  0.57992042  0.59728104  0.61589915  1
  O  O27  1  0.07992033  0.59728104  0.11589913  1
  O  O28  1  0.16467114  0.09711449  0.70076912  1
  O  O29  1  0.66467112  0.09711456  0.20076919  1
  O  O30  1  0.92007967  0.40271896  0.88410087  1
  O  O31  1  0.42007958  0.40271896  0.38410085  1
  O  O32  1  0.53998623  0.31038882  0.81932113  1
  O  O33  1  0.03998605  0.31038881  0.31932107  1
  O  O34  1  0.30525078  0.19040311  0.52550191  1
  O  O35  1  0.80525082  0.19040309  0.02550187  1
  O  O36  1  0.96001395  0.68961119  0.68067893  1
  O  O37  1  0.46001377  0.68961118  0.18067887  1
  O  O38  1  0.19474918  0.80959691  0.97449813  1
  O  O39  1  0.69474922  0.80959689  0.47449809  1
  O  O40  1  0.73191999  0.13530046  0.75178474  1
  O  O41  1  0.23191995  0.13530042  0.25178470  1
  O  O42  1  0.19285464  0.36467173  0.67468941  1
  O  O43  1  0.69285467  0.36467186  0.17468930  1
  O  O44  1  0.76808005  0.86469958  0.74821530  1
  O  O45  1  0.26808001  0.86469954  0.24821526  1
  O  O46  1  0.30714533  0.63532814  0.82531070  1
  O  O47  1  0.80714536  0.63532827  0.32531059  1
  O  O48  1  0.76162966  0.36864196  0.66645237  1
  O  O49  1  0.26162970  0.36864199  0.16645236  1
  O  O50  1  0.93487639  0.13132154  0.52988802  1
  O  O51  1  0.43487629  0.13132152  0.02988801  1
  O  O52  1  0.73837030  0.63135801  0.83354764  1
  O  O53  1  0.23837034  0.63135804  0.33354763  1
  O  O54  1  0.56512371  0.86867848  0.97011199  1
  O  O55  1  0.06512361  0.86867846  0.47011198  1
  F  F56  1  0.07298348  0.09754111  0.92714209  1
  F  F57  1  0.57298350  0.09754115  0.42714208  1
  F  F58  1  0.30648013  0.40163527  0.95209749  1
  F  F59  1  0.80648020  0.40163567  0.45209766  1
  F  F60  1  0.42701650  0.90245885  0.57285792  1
  F  F61  1  0.92701652  0.90245889  0.07285791  1
  F  F62  1  0.19351980  0.59836433  0.54790234  1
  F  F63  1  0.69351987  0.59836473  0.04790251  1
