# generated using pymatgen
data_Na2Sn(CO2)4
_symmetry_space_group_name_H-M   'P 1'
_cell_length_a   5.91054841
_cell_length_b   5.91054841
_cell_length_c   13.66142510
_cell_angle_alpha   73.56043722
_cell_angle_beta   73.56043722
_cell_angle_gamma   57.73130327
_symmetry_Int_Tables_number   1
_chemical_formula_structural   Na2Sn(CO2)4
_chemical_formula_sum   'Na4 Sn2 C8 O16'
_cell_volume   381.89396566
_cell_formula_units_Z   2
loop_
 _symmetry_equiv_pos_site_id
 _symmetry_equiv_pos_as_xyz
  1  'x, y, z'
loop_
 _atom_site_type_symbol
 _atom_site_label
 _atom_site_symmetry_multiplicity
 _atom_site_fract_x
 _atom_site_fract_y
 _atom_site_fract_z
 _atom_site_occupancy
  Sn  Sn0  1  0.82986526  0.17013474  0.25000000  1
  Sn  Sn1  1  0.17013474  0.82986526  0.75000000  1
  Na  Na2  1  0.82779013  0.79827516  0.05018859  1
  Na  Na3  1  0.20172484  0.17220987  0.44981141  1
  Na  Na4  1  0.17220987  0.20172484  0.94981141  1
  Na  Na5  1  0.79827516  0.82779013  0.55018859  1
  O  O6  1  0.17390503  0.34768905  0.09799803  1
  O  O7  1  0.65231095  0.82609497  0.40200197  1
  O  O8  1  0.82609497  0.65231095  0.90200197  1
  O  O9  1  0.34768905  0.17390503  0.59799803  1
  O  O10  1  0.88651054  0.46961873  0.31612838  1
  O  O11  1  0.53038127  0.11348946  0.18387162  1
  O  O12  1  0.11348946  0.53038127  0.68387162  1
  O  O13  1  0.46961873  0.88651054  0.81612838  1
  O  O14  1  0.20456687  0.77003839  0.43986152  1
  O  O15  1  0.22996161  0.79543313  0.06013848  1
  O  O16  1  0.79543313  0.22996161  0.56013848  1
  O  O17  1  0.77003839  0.20456687  0.93986152  1
  O  O18  1  0.59347829  0.55596052  0.14131162  1
  O  O19  1  0.44403948  0.40652171  0.35868838  1
  O  O20  1  0.40652171  0.44403948  0.85868838  1
  O  O21  1  0.55596052  0.59347829  0.64131162  1
  C  C22  1  0.67233885  0.64063218  0.36622159  1
  C  C23  1  0.35936782  0.32766115  0.13377841  1
  C  C24  1  0.32766115  0.35936782  0.63377841  1
  C  C25  1  0.64063218  0.67233885  0.86622159  1
  C  C26  1  0.39250505  0.58340715  0.11070649  1
  C  C27  1  0.41659285  0.60749495  0.38929351  1
  C  C28  1  0.60749495  0.41659285  0.88929351  1
  C  C29  1  0.58340715  0.39250505  0.61070649  1
