# generated using pymatgen
data_NaTiF4
_symmetry_space_group_name_H-M   'P 1'
_cell_length_a   4.94532036
_cell_length_b   5.79262052
_cell_length_c   10.87149362
_cell_angle_alpha   90.00000000
_cell_angle_beta   90.00000000
_cell_angle_gamma   90.00000000
_symmetry_Int_Tables_number   1
_chemical_formula_structural   NaTiF4
_chemical_formula_sum   'Na4 Ti4 F16'
_cell_volume   311.42876590
_cell_formula_units_Z   4
loop_
 _symmetry_equiv_pos_site_id
 _symmetry_equiv_pos_as_xyz
  1  'x, y, z'
loop_
 _atom_site_type_symbol
 _atom_site_label
 _atom_site_symmetry_multiplicity
 _atom_site_fract_x
 _atom_site_fract_y
 _atom_site_fract_z
 _atom_site_occupancy
  Ti  Ti0  1  0.00000000  0.83339698  0.25000000  1
  Ti  Ti1  1  0.00000000  0.16660302  0.75000000  1
  Ti  Ti2  1  0.50000000  0.33339698  0.25000000  1
  Ti  Ti3  1  0.50000000  0.66660302  0.75000000  1
  Na  Na4  1  0.00000000  0.50000000  0.00000000  1
  Na  Na5  1  0.00000000  0.50000000  0.50000000  1
  Na  Na6  1  0.50000000  0.00000000  0.00000000  1
  Na  Na7  1  0.50000000  0.00000000  0.50000000  1
  F  F8  1  0.74469727  0.07559869  0.18701529  1
  F  F9  1  0.74469727  0.92440131  0.68701529  1
  F  F10  1  0.75530273  0.57559869  0.18701529  1
  F  F11  1  0.24469727  0.57559869  0.31298471  1
  F  F12  1  0.25530273  0.92440131  0.81298471  1
  F  F13  1  0.25530273  0.07559869  0.31298471  1
  F  F14  1  0.24469727  0.42440131  0.81298471  1
  F  F15  1  0.75530273  0.42440131  0.68701529  1
  F  F16  1  0.81856651  0.80830097  0.40508481  1
  F  F17  1  0.81856651  0.19169903  0.90508481  1
  F  F18  1  0.68143349  0.30830097  0.40508481  1
  F  F19  1  0.31856651  0.30830097  0.09491519  1
  F  F20  1  0.18143349  0.19169903  0.59491519  1
  F  F21  1  0.18143349  0.80830097  0.09491519  1
  F  F22  1  0.31856651  0.69169903  0.59491519  1
  F  F23  1  0.68143349  0.69169903  0.90508481  1
