# generated using pymatgen
data_BaTeS3
_symmetry_space_group_name_H-M   'P 1'
_cell_length_a   6.85018247
_cell_length_b   7.39647924
_cell_length_c   11.19850326
_cell_angle_alpha   90.00000000
_cell_angle_beta   90.00000000
_cell_angle_gamma   90.00000000
_symmetry_Int_Tables_number   1
_chemical_formula_structural   BaTeS3
_chemical_formula_sum   'Ba4 Te4 S12'
_cell_volume   567.39716714
_cell_formula_units_Z   4
loop_
 _symmetry_equiv_pos_site_id
 _symmetry_equiv_pos_as_xyz
  1  'x, y, z'
loop_
 _atom_site_type_symbol
 _atom_site_label
 _atom_site_symmetry_multiplicity
 _atom_site_fract_x
 _atom_site_fract_y
 _atom_site_fract_z
 _atom_site_occupancy
  Ba  Ba0  1  0.25000000  0.75322467  0.91559582  1
  Ba  Ba1  1  0.25000000  0.25322467  0.58440418  1
  Ba  Ba2  1  0.75000000  0.24677533  0.08440418  1
  Ba  Ba3  1  0.75000000  0.74677533  0.41559582  1
  Te  Te4  1  0.25000000  0.02476368  0.25281501  1
  Te  Te5  1  0.25000000  0.52476368  0.24718499  1
  Te  Te6  1  0.75000000  0.97523632  0.74718499  1
  Te  Te7  1  0.75000000  0.47523632  0.75281501  1
  S  S8  1  0.25000000  0.86727047  0.44053378  1
  S  S9  1  0.25000000  0.36727047  0.05946622  1
  S  S10  1  0.75000000  0.13272953  0.55946622  1
  S  S11  1  0.75000000  0.63272953  0.94053378  1
  S  S12  1  0.51946693  0.87234064  0.15960960  1
  S  S13  1  0.98053307  0.37234064  0.34039040  1
  S  S14  1  0.01946693  0.12765936  0.84039040  1
  S  S15  1  0.48053307  0.62765936  0.65960960  1
  S  S16  1  0.48053307  0.12765936  0.84039040  1
  S  S17  1  0.01946693  0.62765936  0.65960960  1
  S  S18  1  0.98053307  0.87234064  0.15960960  1
  S  S19  1  0.51946693  0.37234064  0.34039040  1
